Decoy1
 OpenBabel07082414533D

 44 45  0  0  0  0  0  0  0  0999 V2000
   -2.3713    2.2834    0.9656 O   0  0  0  0  0  0  0  0  0  0  0  0
   -1.4065    1.6055    0.2589 C   0  0  0  0  0  0  0  0  0  0  0  0
   -2.9890    1.4358    1.9329 C   0  0  0  0  0  0  0  0  0  0  0  0
   -1.6443    1.1643   -1.0619 C   0  0  0  0  0  0  0  0  0  0  0  0
   -0.1662    1.4206    0.8933 C   0  0  0  0  0  0  0  0  0  0  0  0
   -2.8641    1.3283   -1.7475 N   0  0  0  0  0  0  0  0  0  0  0  0
   -0.5677    0.5006   -1.6995 C   0  0  0  0  0  0  0  0  0  0  0  0
    0.8731    0.7467    0.2470 C   0  0  0  0  0  0  0  0  0  0  0  0
   -3.6768    0.1127   -1.7698 C   0  0  0  0  0  0  0  0  0  0  0  0
   -3.6124    2.5649   -1.5281 C   0  0  0  0  0  0  0  0  0  0  0  0
   -0.6290   -0.0209   -2.9721 O   0  0  0  0  0  0  0  0  0  0  0  0
    0.6580    0.2856   -1.0548 C   0  0  0  0  0  0  0  0  0  0  0  0
    2.2013    0.5209    0.9314 C   0  0  0  0  0  0  0  0  0  0  0  0
   -0.9464    0.9688   -3.9540 C   0  0  0  0  0  0  0  0  0  0  0  0
    2.5189   -0.9189    1.2729 C   0  0  0  0  0  0  0  0  0  0  0  0
    3.8254   -1.3374    1.5147 C   0  0  0  0  0  0  0  0  0  0  0  0
    1.5287   -1.8912    1.3961 C   0  0  0  0  0  0  0  0  0  0  0  0
    4.1417   -2.6123    1.7957 N   0  0  0  0  0  0  0  0  0  0  0  0
    4.9002   -0.4708    1.4123 N   0  0  0  0  0  0  0  0  0  0  0  0
    1.8619   -3.1550    1.6719 N   0  3  0  0  0  0  0  0  0  0  0  0
    3.1351   -3.4915    1.8518 C   0  0  0  0  0  0  0  0  0  0  0  0
    3.4307   -4.8079    2.1450 N   0  0  0  0  0  0  0  0  0  0  0  0
   -3.7339    1.9878    2.4670 H   0  0  0  0  0  0  0  0  0  0  0  0
   -2.2493    1.0791    2.6188 H   0  0  0  0  0  0  0  0  0  0  0  0
   -3.4471    0.6049    1.4383 H   0  0  0  0  0  0  0  0  0  0  0  0
   -0.0215    1.7867    1.8473 H   0  0  0  0  0  0  0  0  0  0  0  0
   -3.0456   -0.7353   -1.9350 H   0  0  0  0  0  0  0  0  0  0  0  0
   -4.3974    0.1799   -2.5579 H   0  0  0  0  0  0  0  0  0  0  0  0
   -4.1820    0.0042   -0.8328 H   0  0  0  0  0  0  0  0  0  0  0  0
   -2.9373    3.3950   -1.5279 H   0  0  0  0  0  0  0  0  0  0  0  0
   -4.1161    2.5145   -0.5854 H   0  0  0  0  0  0  0  0  0  0  0  0
   -4.3315    2.6902   -2.3104 H   0  0  0  0  0  0  0  0  0  0  0  0
    1.4111   -0.2195   -1.5474 H   0  0  0  0  0  0  0  0  0  0  0  0
    2.2040    1.0843    1.8411 H   0  0  0  0  0  0  0  0  0  0  0  0
    2.9498    0.8301    0.2320 H   0  0  0  0  0  0  0  0  0  0  0  0
   -0.9815    0.5130   -4.9214 H   0  0  0  0  0  0  0  0  0  0  0  0
   -0.1966    1.7321   -3.9463 H   0  0  0  0  0  0  0  0  0  0  0  0
   -1.8986    1.4019   -3.7290 H   0  0  0  0  0  0  0  0  0  0  0  0
    0.5366   -1.6347    1.2741 H   0  0  0  0  0  0  0  0  0  0  0  0
    4.7480    0.4803    1.2084 H   0  0  0  0  0  0  0  0  0  0  0  0
    5.8167   -0.8056    1.5433 H   0  0  0  0  0  0  0  0  0  0  0  0
    1.1599   -3.8416    1.7424 H   0  0  0  0  0  0  0  0  0  0  0  0
    4.3657   -5.0835    2.2829 H   0  0  0  0  0  0  0  0  0  0  0  0
    2.7065   -5.4710    2.2162 H   0  0  0  0  0  0  0  0  0  0  0  0
  1  2  1  0  0  0  0
  1  3  1  0  0  0  0
  2  4  2  0  0  0  0
  2  5  1  0  0  0  0
  3 23  1  0  0  0  0
  3 24  1  0  0  0  0
  3 25  1  0  0  0  0
  4  6  1  0  0  0  0
  4  7  1  0  0  0  0
  5  8  2  0  0  0  0
  5 26  1  0  0  0  0
  6  9  1  0  0  0  0
  6 10  1  0  0  0  0
  7 11  1  0  0  0  0
  7 12  2  0  0  0  0
  8 13  1  0  0  0  0
  8 12  1  0  0  0  0
  9 27  1  0  0  0  0
  9 28  1  0  0  0  0
  9 29  1  0  0  0  0
 10 30  1  0  0  0  0
 10 31  1  0  0  0  0
 10 32  1  0  0  0  0
 11 14  1  0  0  0  0
 12 33  1  0  0  0  0
 13 15  1  0  0  0  0
 13 34  1  0  0  0  0
 13 35  1  0  0  0  0
 14 36  1  0  0  0  0
 14 37  1  0  0  0  0
 14 38  1  0  0  0  0
 15 16  2  0  0  0  0
 15 17  1  0  0  0  0
 16 18  1  0  0  0  0
 16 19  1  0  0  0  0
 17 20  2  0  0  0  0
 17 39  1  0  0  0  0
 18 21  2  0  0  0  0
 19 40  1  0  0  0  0
 19 41  1  0  0  0  0
 20 21  1  0  0  0  0
 20 42  1  0  0  0  0
 21 22  1  0  0  0  0
 22 43  1  0  0  0  0
 22 44  1  0  0  0  0
M  CHG  1  20   1
M  END
>  <Column 1>
COc1cc(Cc2c[nH+]c(N)nc2N)cc(OC)c1N(C)C ZINC000000000011

>  <Column 2>
Decoy1

>  <MMFF94 Energy>
-27.165

$$$$
Decoy2
 OpenBabel07082414533D

 25 24  0  0  1  0  0  0  0  0999 V2000
   -3.5308    2.1939   -0.3813 Cl  0  0  0  0  0  0  0  0  0  0  0  0
   -1.7862    1.9993   -0.0448 C   0  0  0  0  0  0  0  0  0  0  0  0
   -1.3619    0.5275   -0.1332 C   0  0  0  0  0  0  0  0  0  0  0  0
    0.0531    0.3201    0.2721 N   0  3  0  0  0  0  0  0  0  0  0  0
    0.3322   -1.1402    0.5631 C   0  0  2  0  0  0  0  0  0  0  0  0
    0.9686    0.8402   -0.7798 C   0  0  0  0  0  0  0  0  0  0  0  0
    0.1316   -2.0564   -0.7016 C   0  0  0  0  0  0  0  0  0  0  0  0
   -0.4471   -1.6591    1.7740 C   0  0  0  0  0  0  0  0  0  0  0  0
    2.4807    0.7371   -0.5205 C   0  0  0  0  0  0  0  0  0  0  0  0
   -1.0032   -2.5970   -0.8328 O   0  0  0  0  0  0  0  0  0  0  0  0
    1.1457   -2.1308   -1.4615 O   0  5  0  0  0  0  0  0  0  0  0  0
    2.9849    1.7183    0.8878 Cl  0  0  0  0  0  0  0  0  0  0  0  0
   -1.5784    2.3634    0.9397 H   0  0  0  0  0  0  0  0  0  0  0  0
   -1.2372    2.5535   -0.7772 H   0  0  0  0  0  0  0  0  0  0  0  0
   -1.4822    0.1953   -1.1432 H   0  0  0  0  0  0  0  0  0  0  0  0
   -1.9790   -0.0308    0.5394 H   0  0  0  0  0  0  0  0  0  0  0  0
    0.2201    0.8399    1.1337 H   0  0  0  0  0  0  0  0  0  0  0  0
    1.3692   -1.1946    0.8211 H   0  0  0  0  0  0  0  0  0  0  0  0
    0.7378    1.8753   -0.9221 H   0  0  0  0  0  0  0  0  0  0  0  0
    0.7943    0.2111   -1.6276 H   0  0  0  0  0  0  0  0  0  0  0  0
   -1.4959   -1.6247    1.5646 H   0  0  0  0  0  0  0  0  0  0  0  0
   -0.2330   -1.0469    2.6250 H   0  0  0  0  0  0  0  0  0  0  0  0
   -0.1572   -2.6685    1.9788 H   0  0  0  0  0  0  0  0  0  0  0  0
    3.0046    1.0817   -1.3875 H   0  0  0  0  0  0  0  0  0  0  0  0
    2.7121   -0.2864   -0.3113 H   0  0  0  0  0  0  0  0  0  0  0  0
  1  2  1  0  0  0  0
  2  3  1  0  0  0  0
  2 13  1  0  0  0  0
  2 14  1  0  0  0  0
  3  4  1  0  0  0  0
  3 15  1  0  0  0  0
  3 16  1  0  0  0  0
  4  5  1  0  0  0  0
  4  6  1  0  0  0  0
  4 17  1  0  0  0  0
  5  7  1  0  0  0  0
  5  8  1  0  0  0  0
  5 18  1  1  0  0  0
  6  9  1  0  0  0  0
  6 19  1  0  0  0  0
  6 20  1  0  0  0  0
  7 10  2  0  0  0  0
  7 11  1  0  0  0  0
  8 21  1  0  0  0  0
  8 22  1  0  0  0  0
  8 23  1  0  0  0  0
  9 12  1  0  0  0  0
  9 24  1  0  0  0  0
  9 25  1  0  0  0  0
M  CHG  2   4   1  11  -1
M  END
>  <Column 1>
C[C@@H](C(=O)[O-])N(CCCl)CCCl ZINC000000000015

>  <Column 2>
Decoy2

>  <MMFF94 Energy>
105.47

$$$$
Decoy3
 OpenBabel07082414533D

 32 32  0  0  1  0  0  0  0  0999 V2000
   -0.2665   -1.1550    5.0709 O   0  0  0  0  0  0  0  0  0  0  0  0
    0.7708   -1.5444    4.4576 C   0  0  0  0  0  0  0  0  0  0  0  0
    1.9846   -1.4181    4.7983 O   0  5  0  0  0  0  0  0  0  0  0  0
    0.5411   -2.3129    3.1377 C   0  0  2  0  0  0  0  0  0  0  0  0
    0.5124   -1.3859    1.9339 C   0  0  0  0  0  0  0  0  0  0  0  0
   -0.7244   -3.1680    3.1945 C   0  0  0  0  0  0  0  0  0  0  0  0
   -0.3594   -0.2935    1.8691 C   0  0  0  0  0  0  0  0  0  0  0  0
    1.3531   -1.6227    0.8417 C   0  0  0  0  0  0  0  0  0  0  0  0
   -0.4014    0.5293    0.7360 C   0  0  0  0  0  0  0  0  0  0  0  0
    1.3039   -0.7992   -0.2898 C   0  0  0  0  0  0  0  0  0  0  0  0
    0.3992    0.2673   -0.3802 C   0  0  0  0  0  0  0  0  0  0  0  0
    0.4297    1.0771   -1.5228 N   0  0  0  0  0  0  0  0  0  0  0  0
   -0.7099    1.9276   -1.8137 C   0  0  0  0  0  0  0  0  0  0  0  0
   -0.5475    2.4607   -3.2192 C   0  0  0  0  0  0  0  0  0  0  0  0
   -0.0143    3.6698   -3.4665 C   0  0  0  0  0  0  0  0  0  0  0  0
   -1.0459    1.5758   -4.3259 C   0  0  0  0  0  0  0  0  0  0  0  0
    1.3775   -2.9695    3.0184 H   0  0  0  0  0  0  0  0  0  0  0  0
   -1.5781   -2.5341    3.3138 H   0  0  0  0  0  0  0  0  0  0  0  0
   -0.6623   -3.8424    4.0229 H   0  0  0  0  0  0  0  0  0  0  0  0
   -0.8187   -3.7262    2.2865 H   0  0  0  0  0  0  0  0  0  0  0  0
   -0.9807   -0.0909    2.6678 H   0  0  0  0  0  0  0  0  0  0  0  0
    2.0167   -2.4126    0.8699 H   0  0  0  0  0  0  0  0  0  0  0  0
   -1.0349    1.3439    0.7249 H   0  0  0  0  0  0  0  0  0  0  0  0
    1.9484   -0.9818   -1.0749 H   0  0  0  0  0  0  0  0  0  0  0  0
    1.2126    1.0695   -2.1197 H   0  0  0  0  0  0  0  0  0  0  0  0
   -0.7434    2.7403   -1.1186 H   0  0  0  0  0  0  0  0  0  0  0  0
   -1.6202    1.3715   -1.7297 H   0  0  0  0  0  0  0  0  0  0  0  0
    0.3198    4.2559   -2.6856 H   0  0  0  0  0  0  0  0  0  0  0  0
    0.0609    4.0118   -4.4373 H   0  0  0  0  0  0  0  0  0  0  0  0
   -1.4277    0.6664   -3.9109 H   0  0  0  0  0  0  0  0  0  0  0  0
   -0.2406    1.3525   -4.9941 H   0  0  0  0  0  0  0  0  0  0  0  0
   -1.8245    2.0782   -4.8610 H   0  0  0  0  0  0  0  0  0  0  0  0
  1  2  2  0  0  0  0
  2  3  1  0  0  0  0
  2  4  1  0  0  0  0
  4  5  1  0  0  0  0
  4  6  1  0  0  0  0
  4 17  1  6  0  0  0
  5  7  2  0  0  0  0
  5  8  1  0  0  0  0
  6 18  1  0  0  0  0
  6 19  1  0  0  0  0
  6 20  1  0  0  0  0
  7  9  1  0  0  0  0
  7 21  1  0  0  0  0
  8 10  2  0  0  0  0
  8 22  1  0  0  0  0
  9 11  2  0  0  0  0
  9 23  1  0  0  0  0
 10 11  1  0  0  0  0
 10 24  1  0  0  0  0
 11 12  1  0  0  0  0
 12 13  1  0  0  0  0
 12 25  1  0  0  0  0
 13 14  1  0  0  0  0
 13 26  1  0  0  0  0
 13 27  1  0  0  0  0
 14 15  2  0  0  0  0
 14 16  1  0  0  0  0
 15 28  1  0  0  0  0
 15 29  1  0  0  0  0
 16 30  1  0  0  0  0
 16 31  1  0  0  0  0
 16 32  1  0  0  0  0
M  CHG  1   3  -1
M  END
>  <Column 1>
C=C(C)CNc1ccc([C@H](C)C(=O)[O-])cc1 ZINC000000000022

>  <Column 2>
Decoy3

>  <MMFF94 Energy>
47.15

$$$$
Decoy4
 OpenBabel07082414533D

 39 43  0  0  1  0  0  0  0  0999 V2000
    0.7284   -0.7284   -4.1020 O   0  0  0  0  0  0  0  0  0  0  0  0
    0.7854   -0.1665   -2.8654 C   0  0  0  0  0  0  0  0  0  0  0  0
    0.7339    0.4469   -4.9401 C   0  0  0  0  0  0  0  0  0  0  0  0
    0.8226    1.2042   -2.9161 C   0  0  0  0  0  0  0  0  0  0  0  0
    0.8156   -0.8561   -1.6699 C   0  0  0  0  0  0  0  0  0  0  0  0
    0.7909    1.6797   -4.1882 O   0  0  0  0  0  0  0  0  0  0  0  0
    0.8970    1.9704   -1.7751 C   0  0  0  0  0  0  0  0  0  0  0  0
    0.8667   -0.1192   -0.4780 C   0  0  0  0  0  0  0  0  0  0  0  0
    0.9184    1.3032   -0.5411 C   0  0  0  0  0  0  0  0  0  0  0  0
    0.9541   -0.7502    0.9058 C   0  0  2  0  0  0  0  0  0  0  0  0
    1.0503    2.0720    0.7420 C   0  0  0  0  0  0  0  0  0  0  0  0
    0.6126   -2.2580    1.0636 C   0  0  1  0  0  0  0  0  0  0  0  0
    0.1345    0.0334    1.9623 C   0  0  1  0  0  0  0  0  0  0  0  0
    0.1555    1.5452    1.8188 N   0  3  2  0  0  0  0  0  0  0  0  0
    1.1147   -2.6527    2.3560 O   0  0  0  0  0  0  0  0  0  0  0  0
   -0.9085   -2.5838    0.9848 C   0  0  2  0  0  0  0  0  0  0  0  0
   -1.3237   -0.3275    1.9626 C   0  0  0  0  0  0  0  0  0  0  0  0
   -1.2966    1.9865    1.6838 C   0  0  0  0  0  0  0  0  0  0  0  0
   -1.2717   -2.7867   -0.3719 O   0  0  0  0  0  0  0  0  0  0  0  0
   -1.8021   -1.4959    1.5134 C   0  0  0  0  0  0  0  0  0  0  0  0
   -2.1158    0.8797    2.3361 C   0  0  0  0  0  0  0  0  0  0  0  0
   -0.1590    0.4487   -5.5297 H   0  0  0  0  0  0  0  0  0  0  0  0
    1.6145    0.4021   -5.5462 H   0  0  0  0  0  0  0  0  0  0  0  0
    0.8009   -1.8879   -1.6538 H   0  0  0  0  0  0  0  0  0  0  0  0
    0.9357    3.0004   -1.8256 H   0  0  0  0  0  0  0  0  0  0  0  0
    2.0094   -0.6842    1.0697 H   0  0  0  0  0  0  0  0  0  0  0  0
    0.7986    3.0953    0.5565 H   0  0  0  0  0  0  0  0  0  0  0  0
    2.0605    1.9709    1.0797 H   0  0  0  0  0  0  0  0  0  0  0  0
    1.0591   -2.7906    0.2500 H   0  0  0  0  0  0  0  0  0  0  0  0
    0.6320   -0.2567    2.8641 H   0  0  0  0  0  0  0  0  0  0  0  0
    0.5839    1.9561    2.6483 H   0  0  0  0  0  0  0  0  0  0  0  0
    0.6719   -2.1353    3.0467 H   0  0  0  0  0  0  0  0  0  0  0  0
   -1.0475   -3.4523    1.5941 H   0  0  0  0  0  0  0  0  0  0  0  0
   -1.5621    2.0911    0.6526 H   0  0  0  0  0  0  0  0  0  0  0  0
   -1.4695    2.9359    2.1460 H   0  0  0  0  0  0  0  0  0  0  0  0
   -1.1244   -1.9686   -0.8719 H   0  0  0  0  0  0  0  0  0  0  0  0
   -2.8216   -1.6550    1.5309 H   0  0  0  0  0  0  0  0  0  0  0  0
   -2.1655    1.0027    3.3978 H   0  0  0  0  0  0  0  0  0  0  0  0
   -3.1383    0.8478    2.0223 H   0  0  0  0  0  0  0  0  0  0  0  0
  1  2  1  0  0  0  0
  1  3  1  0  0  0  0
  2  4  2  0  0  0  0
  2  5  1  0  0  0  0
  3  6  1  0  0  0  0
  3 22  1  0  0  0  0
  3 23  1  0  0  0  0
  4  7  1  0  0  0  0
  4  6  1  0  0  0  0
  5  8  2  0  0  0  0
  5 24  1  0  0  0  0
  7  9  2  0  0  0  0
  7 25  1  0  0  0  0
  8 10  1  0  0  0  0
  8  9  1  0  0  0  0
  9 11  1  0  0  0  0
 10 12  1  0  0  0  0
 10 13  1  0  0  0  0
 10 26  1  1  0  0  0
 11 14  1  0  0  0  0
 11 27  1  0  0  0  0
 11 28  1  0  0  0  0
 12 15  1  0  0  0  0
 12 16  1  0  0  0  0
 12 29  1  6  0  0  0
 13 17  1  0  0  0  0
 13 14  1  0  0  0  0
 13 30  1  1  0  0  0
 14 18  1  0  0  0  0
 14 31  1  1  0  0  0
 15 32  1  0  0  0  0
 16 19  1  0  0  0  0
 16 20  1  0  0  0  0
 16 33  1  1  0  0  0
 17 21  1  0  0  0  0
 17 20  2  0  0  0  0
 18 21  1  0  0  0  0
 18 34  1  0  0  0  0
 18 35  1  0  0  0  0
 19 36  1  0  0  0  0
 20 37  1  0  0  0  0
 21 38  1  0  0  0  0
 21 39  1  0  0  0  0
M  CHG  1  14   1
M  END
>  <Column 1>
O[C@@H]1C=C2CC[N@@H+]3Cc4cc5c(cc4[C@H]([C@H]1O)[C@H]23)OCO5 ZINC000000000024

>  <Column 2>
Decoy4

>  <MMFF94 Energy>
78.782

$$$$
Decoy5
 OpenBabel07082414533D

 35 37  0  0  1  0  0  0  0  0999 V2000
   -1.0564    1.9373   -1.3206 O   0  0  0  0  0  0  0  0  0  0  0  0
   -0.7259    0.8559   -0.8355 C   0  0  0  0  0  0  0  0  0  0  0  0
   -0.0349   -0.1133   -1.7316 C   0  0  0  0  0  0  0  0  0  0  0  0
   -0.9769    0.4873    0.5427 C   0  0  0  0  0  0  0  0  0  0  0  0
   -0.4148   -0.1831   -3.0755 C   0  0  0  0  0  0  0  0  0  0  0  0
    1.0157   -0.9152   -1.2696 C   0  0  0  0  0  0  0  0  0  0  0  0
   -1.0537    1.3669    1.5748 N   0  0  0  0  0  0  0  0  0  0  0  0
   -1.1993   -0.7638    1.1251 C   0  0  0  0  0  0  0  0  0  0  0  0
    0.2307   -1.0734   -3.9375 C   0  0  0  0  0  0  0  0  0  0  0  0
    1.6598   -1.8046   -2.1378 C   0  0  0  0  0  0  0  0  0  0  0  0
   -1.2413    0.7365    2.7683 C   0  0  0  0  0  0  0  0  0  0  0  0
   -0.9034    2.8059    1.7133 C   0  0  0  0  0  0  0  0  0  0  0  0
   -1.3576   -0.6041    2.5340 C   0  0  0  0  0  0  0  0  0  0  0  0
    1.2668   -1.8900   -3.4746 C   0  0  0  0  0  0  0  0  0  0  0  0
   -1.2402    1.7183    3.8968 C   0  0  2  0  0  0  0  0  0  0  0  0
   -1.4579    3.0499    3.1284 C   0  0  0  0  0  0  0  0  0  0  0  0
    1.8111   -2.7144   -4.4210 O   0  0  0  0  0  0  0  0  0  0  0  0
    0.1033    1.6881    4.6672 C   0  0  0  0  0  0  0  0  0  0  0  0
    2.8767   -3.5560   -3.9985 C   0  0  0  0  0  0  0  0  0  0  0  0
    1.0191    2.4441    4.2272 O   0  0  0  0  0  0  0  0  0  0  0  0
    0.1207    0.9257    5.6788 O   0  5  0  0  0  0  0  0  0  0  0  0
   -1.1713    0.4225   -3.4304 H   0  0  0  0  0  0  0  0  0  0  0  0
    1.3166   -0.8503   -0.2846 H   0  0  0  0  0  0  0  0  0  0  0  0
   -1.2422   -1.6608    0.6166 H   0  0  0  0  0  0  0  0  0  0  0  0
   -0.0604   -1.1288   -4.9261 H   0  0  0  0  0  0  0  0  0  0  0  0
    2.4277   -2.3991   -1.7885 H   0  0  0  0  0  0  0  0  0  0  0  0
   -1.4753    3.3294    0.9759 H   0  0  0  0  0  0  0  0  0  0  0  0
    0.1006    3.1502    1.5777 H   0  0  0  0  0  0  0  0  0  0  0  0
   -1.5251   -1.3467    3.2308 H   0  0  0  0  0  0  0  0  0  0  0  0
   -1.9726    1.5351    4.6550 H   0  0  0  0  0  0  0  0  0  0  0  0
   -2.4997    3.2903    3.0852 H   0  0  0  0  0  0  0  0  0  0  0  0
   -0.9676    3.8700    3.6101 H   0  0  0  0  0  0  0  0  0  0  0  0
    3.2131   -4.1473   -4.8244 H   0  0  0  0  0  0  0  0  0  0  0  0
    2.5340   -4.1995   -3.2153 H   0  0  0  0  0  0  0  0  0  0  0  0
    3.6848   -2.9545   -3.6379 H   0  0  0  0  0  0  0  0  0  0  0  0
  1  2  2  0  0  0  0
  2  3  1  0  0  0  0
  2  4  1  0  0  0  0
  3  5  2  0  0  0  0
  3  6  1  0  0  0  0
  4  7  1  0  0  0  0
  4  8  2  0  0  0  0
  5  9  1  0  0  0  0
  5 22  1  0  0  0  0
  6 10  2  0  0  0  0
  6 23  1  0  0  0  0
  7 11  1  0  0  0  0
  7 12  1  0  0  0  0
  8 13  1  0  0  0  0
  8 24  1  0  0  0  0
  9 14  2  0  0  0  0
  9 25  1  0  0  0  0
 10 14  1  0  0  0  0
 10 26  1  0  0  0  0
 11 15  1  0  0  0  0
 11 13  2  0  0  0  0
 12 16  1  0  0  0  0
 12 27  1  0  0  0  0
 12 28  1  0  0  0  0
 13 29  1  0  0  0  0
 14 17  1  0  0  0  0
 15 18  1  0  0  0  0
 15 16  1  0  0  0  0
 15 30  1  1  0  0  0
 16 31  1  0  0  0  0
 16 32  1  0  0  0  0
 17 19  1  0  0  0  0
 18 20  2  0  0  0  0
 18 21  1  0  0  0  0
 19 33  1  0  0  0  0
 19 34  1  0  0  0  0
 19 35  1  0  0  0  0
M  CHG  1  21  -1
M  END
>  <Column 1>
COc1ccc(C(=O)c2ccc3n2CC[C@@H]3C(=O)[O-])cc1 ZINC000000000043

>  <Column 2>
Decoy5

>  <MMFF94 Energy>
100.55

$$$$
Decoy6
 OpenBabel07082414533D

 27 27  0  0  1  0  0  0  0  0999 V2000
   -1.6564   -0.0974    1.8514 S   0  0  0  0  0  0  0  0  0  0  0  0
    0.0314   -0.4326    1.3854 C   0  0  0  0  0  0  0  0  0  0  0  0
   -2.4251    0.0963    0.1951 C   0  0  0  0  0  0  0  0  0  0  0  0
    0.3693   -1.5481    0.6156 C   0  0  0  0  0  0  0  0  0  0  0  0
    1.0410    0.4300    1.8188 C   0  0  0  0  0  0  0  0  0  0  0  0
   -1.9011    1.2819   -0.6411 C   0  0  2  0  0  0  0  0  0  0  0  0
    1.7003   -1.7838    0.2606 C   0  0  0  0  0  0  0  0  0  0  0  0
    2.3721    0.1949    1.4644 C   0  0  0  0  0  0  0  0  0  0  0  0
   -2.2360    2.8981    0.1850 S   0  0  0  0  0  0  0  0  0  0  0  0
   -2.5481    1.3399   -2.0360 C   0  0  0  0  0  0  0  0  0  0  0  0
    2.7102   -0.9057    0.6695 C   0  0  0  0  0  0  0  0  0  0  0  0
   -2.0880   -0.0703   -3.0967 S   0  0  0  0  0  0  0  0  0  0  0  0
    4.1426   -1.1772    0.3171 C   0  0  0  0  0  0  0  0  0  0  0  0
   -3.4779    0.2289    0.3329 H   0  0  0  0  0  0  0  0  0  0  0  0
   -2.1720   -0.7869   -0.3533 H   0  0  0  0  0  0  0  0  0  0  0  0
   -0.3677   -2.2015    0.3074 H   0  0  0  0  0  0  0  0  0  0  0  0
    0.8024    1.2457    2.4042 H   0  0  0  0  0  0  0  0  0  0  0  0
   -0.8475    1.1200   -0.7341 H   0  0  0  0  0  0  0  0  0  0  0  0
    1.9401   -2.6115   -0.3073 H   0  0  0  0  0  0  0  0  0  0  0  0
    3.1107    0.8374    1.7912 H   0  0  0  0  0  0  0  0  0  0  0  0
   -3.5791    3.0826    0.2924 H   0  0  0  0  0  0  0  0  0  0  0  0
   -2.2384    2.2437   -2.5178 H   0  0  0  0  0  0  0  0  0  0  0  0
   -3.6085    1.3028   -1.8978 H   0  0  0  0  0  0  0  0  0  0  0  0
   -0.7434   -0.0643   -3.3008 H   0  0  0  0  0  0  0  0  0  0  0  0
    4.1998   -2.0549   -0.2922 H   0  0  0  0  0  0  0  0  0  0  0  0
    4.7080   -1.3275    1.2130 H   0  0  0  0  0  0  0  0  0  0  0  0
    4.5419   -0.3429   -0.2209 H   0  0  0  0  0  0  0  0  0  0  0  0
  1  2  1  0  0  0  0
  1  3  1  0  0  0  0
  2  4  2  0  0  0  0
  2  5  1  0  0  0  0
  3  6  1  0  0  0  0
  3 14  1  0  0  0  0
  3 15  1  0  0  0  0
  4  7  1  0  0  0  0
  4 16  1  0  0  0  0
  5  8  2  0  0  0  0
  5 17  1  0  0  0  0
  6  9  1  0  0  0  0
  6 10  1  0  0  0  0
  6 18  1  6  0  0  0
  7 11  2  0  0  0  0
  7 19  1  0  0  0  0
  8 11  1  0  0  0  0
  8 20  1  0  0  0  0
  9 21  1  0  0  0  0
 10 12  1  0  0  0  0
 10 22  1  0  0  0  0
 10 23  1  0  0  0  0
 11 13  1  0  0  0  0
 12 24  1  0  0  0  0
 13 25  1  0  0  0  0
 13 26  1  0  0  0  0
 13 27  1  0  0  0  0
M  END
>  <Column 1>
Cc1ccc(SC[C@H](S)CS)cc1 ZINC000000000045

>  <Column 2>
Decoy6

>  <MMFF94 Energy>
40.127

$$$$
Decoy7
 OpenBabel07082414533D

 30 31  0  0  0  0  0  0  0  0999 V2000
    2.7277    0.1758   -0.0000 O   0  0  0  0  0  0  0  0  0  0  0  0
    1.3855   -0.0794   -0.0152 C   0  0  0  0  0  0  0  0  0  0  0  0
    3.1287   -0.2690   -1.3019 C   0  0  0  0  0  0  0  0  0  0  0  0
    0.4864    0.1648    1.0164 C   0  0  0  0  0  0  0  0  0  0  0  0
    0.9895   -0.6349   -1.2236 C   0  0  0  0  0  0  0  0  0  0  0  0
    2.0414   -0.7826   -2.0810 O   0  0  0  0  0  0  0  0  0  0  0  0
    0.7608    0.7128    2.2381 O   0  0  0  0  0  0  0  0  0  0  0  0
   -0.8611   -0.1844    0.7964 C   0  0  0  0  0  0  0  0  0  0  0  0
   -0.3283   -0.9756   -1.4712 C   0  0  0  0  0  0  0  0  0  0  0  0
    2.0940    1.1201    2.5081 C   0  0  0  0  0  0  0  0  0  0  0  0
   -1.2495   -0.7403   -0.4459 C   0  0  0  0  0  0  0  0  0  0  0  0
   -1.9275    0.0536    1.8460 C   0  0  0  0  0  0  0  0  0  0  0  0
   -0.8696   -1.5209   -2.5981 O   0  0  0  0  0  0  0  0  0  0  0  0
   -2.5560    1.4136    1.7209 C   0  0  0  0  0  0  0  0  0  0  0  0
    0.0038   -1.7725   -3.6898 C   0  0  0  0  0  0  0  0  0  0  0  0
   -3.8498    1.6310    1.4505 C   0  0  0  0  0  0  0  0  0  0  0  0
    3.8601   -1.0416   -1.1873 H   0  0  0  0  0  0  0  0  0  0  0  0
    3.5203    0.5801   -1.8221 H   0  0  0  0  0  0  0  0  0  0  0  0
    2.1497    1.5261    3.4965 H   0  0  0  0  0  0  0  0  0  0  0  0
    2.3898    1.8651    1.7993 H   0  0  0  0  0  0  0  0  0  0  0  0
    2.7472    0.2760    2.4319 H   0  0  0  0  0  0  0  0  0  0  0  0
   -2.2417   -0.9790   -0.5995 H   0  0  0  0  0  0  0  0  0  0  0  0
   -1.4820   -0.0320    2.8151 H   0  0  0  0  0  0  0  0  0  0  0  0
   -2.6961   -0.6771    1.7040 H   0  0  0  0  0  0  0  0  0  0  0  0
   -1.9482    2.2372    1.8525 H   0  0  0  0  0  0  0  0  0  0  0  0
   -0.5512   -2.1974   -4.5000 H   0  0  0  0  0  0  0  0  0  0  0  0
    0.7687   -2.4556   -3.3845 H   0  0  0  0  0  0  0  0  0  0  0  0
    0.4517   -0.8541   -4.0072 H   0  0  0  0  0  0  0  0  0  0  0  0
   -4.4893    0.8329    1.3123 H   0  0  0  0  0  0  0  0  0  0  0  0
   -4.2071    2.5966    1.3803 H   0  0  0  0  0  0  0  0  0  0  0  0
  1  2  1  0  0  0  0
  1  3  1  0  0  0  0
  2  4  2  0  0  0  0
  2  5  1  0  0  0  0
  3  6  1  0  0  0  0
  3 17  1  0  0  0  0
  3 18  1  0  0  0  0
  4  7  1  0  0  0  0
  4  8  1  0  0  0  0
  5  9  2  0  0  0  0
  5  6  1  0  0  0  0
  7 10  1  0  0  0  0
  8 11  2  0  0  0  0
  8 12  1  0  0  0  0
  9 13  1  0  0  0  0
  9 11  1  0  0  0  0
 10 19  1  0  0  0  0
 10 20  1  0  0  0  0
 10 21  1  0  0  0  0
 11 22  1  0  0  0  0
 12 14  1  0  0  0  0
 12 23  1  0  0  0  0
 12 24  1  0  0  0  0
 13 15  1  0  0  0  0
 14 16  2  0  0  0  0
 14 25  1  0  0  0  0
 15 26  1  0  0  0  0
 15 27  1  0  0  0  0
 15 28  1  0  0  0  0
 16 29  1  0  0  0  0
 16 30  1  0  0  0  0
M  END
>  <Column 1>
C=CCc1cc(OC)c2c(c1OC)OCO2 ZINC000000000048

>  <Column 2>
Decoy7

>  <MMFF94 Energy>
58.368

$$$$
Decoy8
 OpenBabel07082414533D

 27 28  0  0  1  0  0  0  0  0999 V2000
    3.1688    3.8941    1.6288 S   0  0  0  0  0  0  0  0  0  0  0  0
    2.5149    2.6059    0.7097 C   0  0  0  0  0  0  0  0  0  0  0  0
    1.9301    3.7588    2.7988 C   0  0  0  0  0  0  0  0  0  0  0  0
    1.3693    2.0767    1.2743 C   0  0  0  0  0  0  0  0  0  0  0  0
    1.0411    2.7514    2.4950 C   0  0  0  0  0  0  0  0  0  0  0  0
    0.6506    0.9617    0.6651 C   0  0  0  0  0  0  0  0  0  0  0  0
    0.2058   -0.1024    1.4587 C   0  0  0  0  0  0  0  0  0  0  0  0
    0.3778    0.9431   -0.7076 C   0  0  0  0  0  0  0  0  0  0  0  0
   -0.4908   -1.1720    0.8871 C   0  0  0  0  0  0  0  0  0  0  0  0
   -0.3196   -0.1268   -1.2766 C   0  0  0  0  0  0  0  0  0  0  0  0
   -0.7604   -1.1983   -0.4876 C   0  0  0  0  0  0  0  0  0  0  0  0
   -1.5007   -2.3784   -1.0969 C   0  0  1  0  0  0  0  0  0  0  0  0
   -2.7901   -1.9230   -1.8158 C   0  0  0  0  0  0  0  0  0  0  0  0
   -0.5859   -3.1885   -2.0145 C   0  0  0  0  0  0  0  0  0  0  0  0
   -2.6864   -1.6726   -3.0525 O   0  0  0  0  0  0  0  0  0  0  0  0
   -3.8223   -1.8780   -1.0822 O   0  5  0  0  0  0  0  0  0  0  0  0
    2.9307    2.2620   -0.1700 H   0  0  0  0  0  0  0  0  0  0  0  0
    1.8569    4.3606    3.6340 H   0  0  0  0  0  0  0  0  0  0  0  0
    0.2278    2.5092    3.0823 H   0  0  0  0  0  0  0  0  0  0  0  0
    0.3934   -0.0975    2.4735 H   0  0  0  0  0  0  0  0  0  0  0  0
    0.6935    1.7242   -1.3036 H   0  0  0  0  0  0  0  0  0  0  0  0
   -0.8098   -1.9506    1.4846 H   0  0  0  0  0  0  0  0  0  0  0  0
   -0.5123   -0.1277   -2.2904 H   0  0  0  0  0  0  0  0  0  0  0  0
   -1.8013   -3.0262   -0.3001 H   0  0  0  0  0  0  0  0  0  0  0  0
   -0.2618   -2.5738   -2.8281 H   0  0  0  0  0  0  0  0  0  0  0  0
   -1.1209   -4.0328   -2.3964 H   0  0  0  0  0  0  0  0  0  0  0  0
    0.2656   -3.5262   -1.4615 H   0  0  0  0  0  0  0  0  0  0  0  0
  1  2  1  0  0  0  0
  1  3  1  0  0  0  0
  2  4  2  0  0  0  0
  2 17  1  0  0  0  0
  3  5  2  0  0  0  0
  3 18  1  0  0  0  0
  4  6  1  0  0  0  0
  4  5  1  0  0  0  0
  5 19  1  0  0  0  0
  6  7  2  0  0  0  0
  6  8  1  0  0  0  0
  7  9  1  0  0  0  0
  7 20  1  0  0  0  0
  8 10  2  0  0  0  0
  8 21  1  0  0  0  0
  9 11  2  0  0  0  0
  9 22  1  0  0  0  0
 10 11  1  0  0  0  0
 10 23  1  0  0  0  0
 11 12  1  0  0  0  0
 12 13  1  0  0  0  0
 12 14  1  0  0  0  0
 12 24  1  1  0  0  0
 13 15  2  0  0  0  0
 13 16  1  0  0  0  0
 14 25  1  0  0  0  0
 14 26  1  0  0  0  0
 14 27  1  0  0  0  0
M  CHG  1  16  -1
M  END
>  <Column 1>
C[C@H](C(=O)[O-])c1ccc(-c2ccsc2)cc1 ZINC000000000054

>  <Column 2>
Decoy8

>  <MMFF94 Energy>
60.043

$$$$
Decoy9
 OpenBabel07082414533D

 37 39  0  0  1  0  0  0  0  0999 V2000
    1.1484   -2.9170   -0.3533 O   0  0  0  0  0  0  0  0  0  0  0  0
    0.7999   -1.9705    0.3575 C   0  0  0  0  0  0  0  0  0  0  0  0
    1.0460   -0.5674   -0.1011 C   0  0  0  0  0  0  0  0  0  0  0  0
    0.2006   -2.2419    1.7190 C   0  0  0  0  0  0  0  0  0  0  0  0
    0.8725    0.5626    0.7099 C   0  0  0  0  0  0  0  0  0  0  0  0
    1.5166   -0.3903   -1.4147 C   0  0  0  0  0  0  0  0  0  0  0  0
   -0.9913   -1.3910    2.0419 C   0  0  0  0  0  0  0  0  0  0  0  0
    0.4256    0.5364    2.0123 O   0  0  0  0  0  0  0  0  0  0  0  0
    1.2078    1.8328    0.2298 C   0  0  0  0  0  0  0  0  0  0  0  0
    1.8247    0.8857   -1.9169 C   0  0  0  0  0  0  0  0  0  0  0  0
   -0.8228   -0.0132    2.1667 C   0  0  0  0  0  0  0  0  0  0  0  0
   -2.2689   -1.9358    2.2198 C   0  0  0  0  0  0  0  0  0  0  0  0
    1.6783    1.9923   -1.0720 C   0  0  0  0  0  0  0  0  0  0  0  0
    2.3508    1.0389   -3.3361 C   0  0  1  0  0  0  0  0  0  0  0  0
   -1.8903    0.8190    2.4910 C   0  0  0  0  0  0  0  0  0  0  0  0
   -3.3578   -1.1119    2.5421 C   0  0  0  0  0  0  0  0  0  0  0  0
    1.6093    2.1585   -4.1022 C   0  0  0  0  0  0  0  0  0  0  0  0
    3.8636    1.2492   -3.3275 C   0  0  0  0  0  0  0  0  0  0  0  0
   -3.1599    0.2697    2.6673 C   0  0  0  0  0  0  0  0  0  0  0  0
   -4.7321   -1.6961    2.6859 C   0  0  0  0  0  0  0  0  0  0  0  0
    2.1512    3.3025   -4.0882 O   0  0  0  0  0  0  0  0  0  0  0  0
    0.5376    1.7980   -4.6719 O   0  5  0  0  0  0  0  0  0  0  0  0
    0.9522   -2.0627    2.4592 H   0  0  0  0  0  0  0  0  0  0  0  0
   -0.1370   -3.2572    1.7116 H   0  0  0  0  0  0  0  0  0  0  0  0
    1.6383   -1.2151   -2.0229 H   0  0  0  0  0  0  0  0  0  0  0  0
    1.1062    2.6565    0.8432 H   0  0  0  0  0  0  0  0  0  0  0  0
   -2.4108   -2.9524    2.1129 H   0  0  0  0  0  0  0  0  0  0  0  0
    1.9210    2.9344   -1.4163 H   0  0  0  0  0  0  0  0  0  0  0  0
    2.1537    0.1299   -3.8651 H   0  0  0  0  0  0  0  0  0  0  0  0
   -1.7434    1.8346    2.6001 H   0  0  0  0  0  0  0  0  0  0  0  0
    4.0950    2.1533   -2.8041 H   0  0  0  0  0  0  0  0  0  0  0  0
    4.2198    1.3187   -4.3341 H   0  0  0  0  0  0  0  0  0  0  0  0
    4.3358    0.4230   -2.8383 H   0  0  0  0  0  0  0  0  0  0  0  0
   -3.9582    0.8842    2.8912 H   0  0  0  0  0  0  0  0  0  0  0  0
   -4.6835   -2.7575    2.5591 H   0  0  0  0  0  0  0  0  0  0  0  0
   -5.3773   -1.2772    1.9422 H   0  0  0  0  0  0  0  0  0  0  0  0
   -5.1156   -1.4703    3.6589 H   0  0  0  0  0  0  0  0  0  0  0  0
  1  2  2  0  0  0  0
  2  3  1  0  0  0  0
  2  4  1  0  0  0  0
  3  5  2  0  0  0  0
  3  6  1  0  0  0  0
  4  7  1  0  0  0  0
  4 23  1  0  0  0  0
  4 24  1  0  0  0  0
  5  8  1  0  0  0  0
  5  9  1  0  0  0  0
  6 10  2  0  0  0  0
  6 25  1  0  0  0  0
  7 11  2  0  0  0  0
  7 12  1  0  0  0  0
  8 11  1  0  0  0  0
  9 13  2  0  0  0  0
  9 26  1  0  0  0  0
 10 14  1  0  0  0  0
 10 13  1  0  0  0  0
 11 15  1  0  0  0  0
 12 16  2  0  0  0  0
 12 27  1  0  0  0  0
 13 28  1  0  0  0  0
 14 17  1  0  0  0  0
 14 18  1  0  0  0  0
 14 29  1  6  0  0  0
 15 19  2  0  0  0  0
 15 30  1  0  0  0  0
 16 20  1  0  0  0  0
 16 19  1  0  0  0  0
 17 21  2  0  0  0  0
 17 22  1  0  0  0  0
 18 31  1  0  0  0  0
 18 32  1  0  0  0  0
 18 33  1  0  0  0  0
 19 34  1  0  0  0  0
 20 35  1  0  0  0  0
 20 36  1  0  0  0  0
 20 37  1  0  0  0  0
M  CHG  1  22  -1
M  END
>  <Column 1>
Cc1ccc2c(c1)CC(=O)c1cc([C@H](C)C(=O)[O-])ccc1O2 ZINC000000000080

>  <Column 2>
Decoy9

>  <MMFF94 Energy>
108.46

$$$$
Decoy10
 OpenBabel07082414533D

 32 32  0  0  1  0  0  0  0  0999 V2000
    4.1239   -0.3661   -2.2897 Br  0  0  0  0  0  0  0  0  0  0  0  0
    2.6145   -0.1851   -1.1558 C   0  0  0  0  0  0  0  0  0  0  0  0
    2.3154    1.0205   -0.5217 C   0  0  0  0  0  0  0  0  0  0  0  0
    1.7970   -1.3018   -0.9557 C   0  0  0  0  0  0  0  0  0  0  0  0
    3.1168    2.1224   -0.6516 O   0  0  0  0  0  0  0  0  0  0  0  0
    1.2283    1.1010    0.3501 C   0  0  0  0  0  0  0  0  0  0  0  0
    0.6937   -1.2250   -0.0991 C   0  0  0  0  0  0  0  0  0  0  0  0
    2.6442    2.9721   -1.6981 C   0  0  0  0  0  0  0  0  0  0  0  0
    0.4073   -0.0174    0.5686 C   0  0  0  0  0  0  0  0  0  0  0  0
   -0.1731   -2.2572    0.1525 O   0  0  0  0  0  0  0  0  0  0  0  0
   -0.7597    0.0960    1.5224 C   0  0  0  0  0  0  0  0  0  0  0  0
    0.1670   -3.5362   -0.3789 C   0  0  0  0  0  0  0  0  0  0  0  0
   -2.0357    0.6446    0.8652 C   0  0  2  0  0  0  0  0  0  0  0  0
   -3.0608    0.8653    1.9377 N   0  3  0  0  0  0  0  0  0  0  0  0
   -2.6622   -0.2774   -0.1735 C   0  0  0  0  0  0  0  0  0  0  0  0
    2.0086   -2.1869   -1.4423 H   0  0  0  0  0  0  0  0  0  0  0  0
    1.0265    1.9881    0.8373 H   0  0  0  0  0  0  0  0  0  0  0  0
    3.2846    3.8253   -1.7814 H   0  0  0  0  0  0  0  0  0  0  0  0
    1.6486    3.2939   -1.4741 H   0  0  0  0  0  0  0  0  0  0  0  0
    2.6454    2.4336   -2.6227 H   0  0  0  0  0  0  0  0  0  0  0  0
   -0.4817    0.7508    2.3217 H   0  0  0  0  0  0  0  0  0  0  0  0
   -0.9824   -0.8922    1.8670 H   0  0  0  0  0  0  0  0  0  0  0  0
   -0.5878   -4.2458   -0.1112 H   0  0  0  0  0  0  0  0  0  0  0  0
    1.1089   -3.8495    0.0207 H   0  0  0  0  0  0  0  0  0  0  0  0
    0.2351   -3.4729   -1.4449 H   0  0  0  0  0  0  0  0  0  0  0  0
   -1.7451    1.5409    0.3582 H   0  0  0  0  0  0  0  0  0  0  0  0
   -3.2904   -0.0261    2.3771 H   0  0  0  0  0  0  0  0  0  0  0  0
   -3.9025    1.2681    1.5258 H   0  0  0  0  0  0  0  0  0  0  0  0
   -2.6866    1.5039    2.6395 H   0  0  0  0  0  0  0  0  0  0  0  0
   -2.9673   -1.1890    0.2965 H   0  0  0  0  0  0  0  0  0  0  0  0
   -1.9452   -0.4928   -0.9379 H   0  0  0  0  0  0  0  0  0  0  0  0
   -3.5141    0.2021   -0.6085 H   0  0  0  0  0  0  0  0  0  0  0  0
  1  2  1  0  0  0  0
  2  3  2  0  0  0  0
  2  4  1  0  0  0  0
  3  5  1  0  0  0  0
  3  6  1  0  0  0  0
  4  7  2  0  0  0  0
  4 16  1  0  0  0  0
  5  8  1  0  0  0  0
  6  9  2  0  0  0  0
  6 17  1  0  0  0  0
  7 10  1  0  0  0  0
  7  9  1  0  0  0  0
  8 18  1  0  0  0  0
  8 19  1  0  0  0  0
  8 20  1  0  0  0  0
  9 11  1  0  0  0  0
 10 12  1  0  0  0  0
 11 13  1  0  0  0  0
 11 21  1  0  0  0  0
 11 22  1  0  0  0  0
 12 23  1  0  0  0  0
 12 24  1  0  0  0  0
 12 25  1  0  0  0  0
 13 14  1  0  0  0  0
 13 15  1  0  0  0  0
 13 26  1  6  0  0  0
 14 27  1  0  0  0  0
 14 28  1  0  0  0  0
 14 29  1  0  0  0  0
 15 30  1  0  0  0  0
 15 31  1  0  0  0  0
 15 32  1  0  0  0  0
M  CHG  1  14   1
M  END
>  <Column 1>
COc1cc(C[C@@H](C)[NH3+])c(OC)cc1Br ZINC000000000092

>  <Column 2>
Decoy10

>  <MMFF94 Energy>
48.664

$$$$
Decoy11
 OpenBabel07082414533D

 42 46  0  0  1  0  0  0  0  0999 V2000
   -1.1522    0.6203    1.8616 O   0  0  0  0  0  0  0  0  0  0  0  0
   -0.4294    0.5216    0.8770 C   0  0  0  0  0  0  0  0  0  0  0  0
   -0.7712    0.4985   -0.4667 N   0  0  0  0  0  0  0  0  0  0  0  0
    1.0476    0.3995    0.9465 C   0  0  0  0  0  0  0  0  0  0  0  0
    0.4119    0.3890   -1.2259 N   0  0  0  0  0  0  0  0  0  0  0  0
   -2.0107    0.1844   -1.0536 C   0  0  0  0  0  0  0  0  0  0  0  0
    1.4945    0.3358   -0.3268 C   0  0  0  0  0  0  0  0  0  0  0  0
    1.8009    0.3903    2.2321 C   0  0  0  0  0  0  0  0  0  0  0  0
    0.2985    0.8679   -2.5744 C   0  0  0  0  0  0  0  0  0  0  0  0
   -2.1377    0.3324   -2.4492 C   0  0  0  0  0  0  0  0  0  0  0  0
   -3.0965   -0.2686   -0.2892 C   0  0  0  0  0  0  0  0  0  0  0  0
    2.6507    0.2064   -0.8007 O   0  5  0  0  0  0  0  0  0  0  0  0
    1.3747   -0.6965    3.2280 C   0  0  1  0  0  0  0  0  0  0  0  0
   -0.9753    0.8449   -3.2106 C   0  0  0  0  0  0  0  0  0  0  0  0
    1.3927    1.3632   -3.3064 C   0  0  0  0  0  0  0  0  0  0  0  0
   -3.3665   -0.0176   -3.0426 C   0  0  0  0  0  0  0  0  0  0  0  0
   -4.3081   -0.5937   -0.8975 C   0  0  0  0  0  0  0  0  0  0  0  0
    1.7842   -2.0146    2.8092 O   0  0  0  0  0  0  0  0  0  0  0  0
    2.0148   -0.4855    4.5976 C   0  0  0  0  0  0  0  0  0  0  0  0
   -1.0912    1.3329   -4.5309 C   0  0  0  0  0  0  0  0  0  0  0  0
    1.2584    1.8289   -4.6160 C   0  0  0  0  0  0  0  0  0  0  0  0
   -4.4417   -0.4734   -2.2747 C   0  0  0  0  0  0  0  0  0  0  0  0
    2.3831   -2.6914    3.9165 C   0  0  0  0  0  0  0  0  0  0  0  0
    2.0445   -1.8871    5.1505 C   0  0  0  0  0  0  0  0  0  0  0  0
    0.0154    1.8167   -5.2284 C   0  0  0  0  0  0  0  0  0  0  0  0
    1.6661    1.3420    2.7022 H   0  0  0  0  0  0  0  0  0  0  0  0
    2.8193    0.1804    1.9795 H   0  0  0  0  0  0  0  0  0  0  0  0
   -2.9973   -0.3621    0.7338 H   0  0  0  0  0  0  0  0  0  0  0  0
    0.3082   -0.6233    3.2738 H   0  0  0  0  0  0  0  0  0  0  0  0
    2.3238    1.3831   -2.8618 H   0  0  0  0  0  0  0  0  0  0  0  0
   -3.4750    0.0643   -4.0656 H   0  0  0  0  0  0  0  0  0  0  0  0
   -5.1026   -0.9224   -0.3267 H   0  0  0  0  0  0  0  0  0  0  0  0
    1.4203    0.1608    5.2089 H   0  0  0  0  0  0  0  0  0  0  0  0
    2.9765   -0.0181    4.5564 H   0  0  0  0  0  0  0  0  0  0  0  0
   -2.0155    1.3315   -4.9898 H   0  0  0  0  0  0  0  0  0  0  0  0
    2.0830    2.1814   -5.1266 H   0  0  0  0  0  0  0  0  0  0  0  0
   -5.3340   -0.7203   -2.7306 H   0  0  0  0  0  0  0  0  0  0  0  0
    3.4442   -2.7413    3.7883 H   0  0  0  0  0  0  0  0  0  0  0  0
    2.0186   -3.6941    3.9981 H   0  0  0  0  0  0  0  0  0  0  0  0
    1.0936   -2.1690    5.5519 H   0  0  0  0  0  0  0  0  0  0  0  0
    2.7305   -2.0218    5.9606 H   0  0  0  0  0  0  0  0  0  0  0  0
   -0.0908    2.1634   -6.1946 H   0  0  0  0  0  0  0  0  0  0  0  0
  1  2  2  0  0  0  0
  2  3  1  0  0  0  0
  2  4  1  0  0  0  0
  3  5  1  0  0  0  0
  3  6  1  0  0  0  0
  4  7  2  0  0  0  0
  4  8  1  0  0  0  0
  5  9  1  0  0  0  0
  5  7  1  0  0  0  0
  6 10  2  0  0  0  0
  6 11  1  0  0  0  0
  7 12  1  0  0  0  0
  8 13  1  0  0  0  0
  8 26  1  0  0  0  0
  8 27  1  0  0  0  0
  9 14  2  0  0  0  0
  9 15  1  0  0  0  0
 10 16  1  0  0  0  0
 10 14  1  0  0  0  0
 11 17  2  0  0  0  0
 11 28  1  0  0  0  0
 13 18  1  0  0  0  0
 13 19  1  0  0  0  0
 13 29  1  1  0  0  0
 14 20  1  0  0  0  0
 15 21  2  0  0  0  0
 15 30  1  0  0  0  0
 16 22  2  0  0  0  0
 16 31  1  0  0  0  0
 17 22  1  0  0  0  0
 17 32  1  0  0  0  0
 18 23  1  0  0  0  0
 19 24  1  0  0  0  0
 19 33  1  0  0  0  0
 19 34  1  0  0  0  0
 20 25  2  0  0  0  0
 20 35  1  0  0  0  0
 21 25  1  0  0  0  0
 21 36  1  0  0  0  0
 22 37  1  0  0  0  0
 23 24  1  0  0  0  0
 23 38  1  0  0  0  0
 23 39  1  0  0  0  0
 24 40  1  0  0  0  0
 24 41  1  0  0  0  0
 25 42  1  0  0  0  0
M  CHG  1  12  -1
M  END
>  <Column 1>
O=c1c(C[C@@H]2CCCO2)c([O-])n2n1-c1ccccc1-c1ccccc1-2 ZINC000000000152

>  <Column 2>
Decoy11

>  <MMFF94 Energy>
86.683

$$$$
Decoy12
 OpenBabel07082414533D

 37 39  0  0  1  0  0  0  0  0999 V2000
    0.2768    3.3244    0.8304 Cl  0  0  0  0  0  0  0  0  0  0  0  0
    0.5837    1.8652   -0.0530 C   0  0  0  0  0  0  0  0  0  0  0  0
   -0.0888    0.6501    0.2386 C   0  0  0  0  0  0  0  0  0  0  0  0
    1.5375    1.9433   -1.0764 C   0  0  0  0  0  0  0  0  0  0  0  0
    0.2327   -0.4919   -0.5266 C   0  0  0  0  0  0  0  0  0  0  0  0
   -1.1181    0.5291    1.3561 C   0  0  0  0  0  0  0  0  0  0  0  0
    1.8161    0.8084   -1.8178 C   0  0  0  0  0  0  0  0  0  0  0  0
    1.1672   -0.3954   -1.5455 C   0  0  0  0  0  0  0  0  0  0  0  0
   -2.4904    0.0618    0.8330 C   0  0  0  0  0  0  0  0  0  0  0  0
   -0.6192   -0.3903    2.4864 C   0  0  0  0  0  0  0  0  0  0  0  0
    2.8008    0.6566   -2.9487 C   0  0  1  0  0  0  0  0  0  0  0  0
    1.6809   -1.4835   -2.4356 C   0  0  0  0  0  0  0  0  0  0  0  0
   -3.5104   -0.0489    1.9658 C   0  0  0  0  0  0  0  0  0  0  0  0
   -1.6480   -0.5026    3.6107 C   0  0  0  0  0  0  0  0  0  0  0  0
    4.2515    0.6542   -2.4395 C   0  0  0  0  0  0  0  0  0  0  0  0
    2.3138   -0.6659   -3.5712 C   0  0  0  0  0  0  0  0  0  0  0  0
   -3.0087   -0.9538    3.0875 C   0  0  0  0  0  0  0  0  0  0  0  0
    4.7410    1.8049   -2.2320 O   0  0  0  0  0  0  0  0  0  0  0  0
    4.8064   -0.4757   -2.3185 O   0  5  0  0  0  0  0  0  0  0  0  0
    2.0239    2.8318   -1.2739 H   0  0  0  0  0  0  0  0  0  0  0  0
   -0.2262   -1.3947   -0.3281 H   0  0  0  0  0  0  0  0  0  0  0  0
   -1.2483    1.5108    1.7612 H   0  0  0  0  0  0  0  0  0  0  0  0
   -2.3787   -0.8964    0.3702 H   0  0  0  0  0  0  0  0  0  0  0  0
   -2.8463    0.7844    0.1286 H   0  0  0  0  0  0  0  0  0  0  0  0
    0.2895    0.0101    2.8850 H   0  0  0  0  0  0  0  0  0  0  0  0
   -0.4582   -1.3666    2.0792 H   0  0  0  0  0  0  0  0  0  0  0  0
    2.8280    1.4547   -3.6609 H   0  0  0  0  0  0  0  0  0  0  0  0
    0.8867   -2.1041   -2.7947 H   0  0  0  0  0  0  0  0  0  0  0  0
    2.3540   -2.1626   -1.9554 H   0  0  0  0  0  0  0  0  0  0  0  0
   -4.4209   -0.4528    1.5749 H   0  0  0  0  0  0  0  0  0  0  0  0
   -3.6685    0.9290    2.3703 H   0  0  0  0  0  0  0  0  0  0  0  0
   -1.7561    0.4536    4.0786 H   0  0  0  0  0  0  0  0  0  0  0  0
   -1.2999   -1.2343    4.3095 H   0  0  0  0  0  0  0  0  0  0  0  0
    3.1389   -1.1999   -3.9941 H   0  0  0  0  0  0  0  0  0  0  0  0
    1.6073   -0.4848   -4.3541 H   0  0  0  0  0  0  0  0  0  0  0  0
   -2.9229   -1.9531    2.7147 H   0  0  0  0  0  0  0  0  0  0  0  0
   -3.7095   -0.9045    3.8946 H   0  0  0  0  0  0  0  0  0  0  0  0
  1  2  1  0  0  0  0
  2  3  2  0  0  0  0
  2  4  1  0  0  0  0
  3  5  1  0  0  0  0
  3  6  1  0  0  0  0
  4  7  2  0  0  0  0
  4 20  1  0  0  0  0
  5  8  2  0  0  0  0
  5 21  1  0  0  0  0
  6  9  1  0  0  0  0
  6 10  1  0  0  0  0
  6 22  1  0  0  0  0
  7 11  1  0  0  0  0
  7  8  1  0  0  0  0
  8 12  1  0  0  0  0
  9 13  1  0  0  0  0
  9 23  1  0  0  0  0
  9 24  1  0  0  0  0
 10 14  1  0  0  0  0
 10 25  1  0  0  0  0
 10 26  1  0  0  0  0
 11 15  1  0  0  0  0
 11 16  1  0  0  0  0
 11 27  1  6  0  0  0
 12 16  1  0  0  0  0
 12 28  1  0  0  0  0
 12 29  1  0  0  0  0
 13 17  1  0  0  0  0
 13 30  1  0  0  0  0
 13 31  1  0  0  0  0
 14 17  1  0  0  0  0
 14 32  1  0  0  0  0
 14 33  1  0  0  0  0
 15 18  2  0  0  0  0
 15 19  1  0  0  0  0
 16 34  1  0  0  0  0
 16 35  1  0  0  0  0
 17 36  1  0  0  0  0
 17 37  1  0  0  0  0
M  CHG  1  19  -1
M  END
>  <Column 1>
O=C([O-])[C@H]1CCc2cc(C3CCCCC3)c(Cl)cc21 ZINC000000000163

>  <Column 2>
Decoy12

>  <MMFF94 Energy>
62.005

$$$$
Decoy13
 OpenBabel07082414533D

 45 47  0  0  1  0  0  0  0  0999 V2000
    1.5499   -0.3645    2.4624 S   0  0  0  0  0  0  0  0  0  0  0  0
    1.7790   -1.3229    0.9766 C   0  0  0  0  0  0  0  0  0  0  0  0
    1.4660    1.2878    1.7965 C   0  0  0  0  0  0  0  0  0  0  0  0
    1.4050   -0.8366   -0.2958 C   0  0  0  0  0  0  0  0  0  0  0  0
    2.3090   -2.6143    1.1299 C   0  0  0  0  0  0  0  0  0  0  0  0
    1.1440    1.5379    0.4433 C   0  0  0  0  0  0  0  0  0  0  0  0
    1.7075    2.3435    2.6900 C   0  0  0  0  0  0  0  0  0  0  0  0
    0.8368    0.4618   -0.4372 N   0  0  0  0  0  0  0  0  0  0  0  0
    1.6248   -1.6869   -1.3977 C   0  0  0  0  0  0  0  0  0  0  0  0
    2.5021   -3.4381    0.0236 C   0  0  0  0  0  0  0  0  0  0  0  0
    1.1588    2.8813    0.0233 C   0  0  0  0  0  0  0  0  0  0  0  0
    1.6744    3.6624    2.2506 C   0  0  0  0  0  0  0  0  0  0  0  0
    0.0105    0.7472   -1.6365 C   0  0  0  0  0  0  0  0  0  0  0  0
    2.1655   -2.9736   -1.2444 C   0  0  0  0  0  0  0  0  0  0  0  0
    1.4128    3.9301    0.9145 C   0  0  0  0  0  0  0  0  0  0  0  0
   -1.2980   -0.0849   -1.6600 C   0  0  1  0  0  0  0  0  0  0  0  0
    2.3567   -3.8077   -2.3949 C   0  0  0  0  0  0  0  0  0  0  0  0
   -2.2768    0.3320   -0.5461 C   0  0  0  0  0  0  0  0  0  0  0  0
   -1.9817    0.1119   -3.0194 C   0  0  0  0  0  0  0  0  0  0  0  0
    2.4753   -4.4726   -3.3372 N   0  0  0  0  0  0  0  0  0  0  0  0
   -1.8205   -0.1254    0.8187 N   0  3  0  0  0  0  0  0  0  0  0  0
   -2.1003   -1.5744    1.0982 C   0  0  0  0  0  0  0  0  0  0  0  0
   -2.3435    0.7539    1.9206 C   0  0  0  0  0  0  0  0  0  0  0  0
    2.5578   -2.9562    2.0713 H   0  0  0  0  0  0  0  0  0  0  0  0
    1.9112    2.1390    3.6808 H   0  0  0  0  0  0  0  0  0  0  0  0
    1.3815   -1.3546   -2.3440 H   0  0  0  0  0  0  0  0  0  0  0  0
    2.8920   -4.3861    0.1433 H   0  0  0  0  0  0  0  0  0  0  0  0
    0.9774    3.0988   -0.9691 H   0  0  0  0  0  0  0  0  0  0  0  0
    1.8430    4.4358    2.9128 H   0  0  0  0  0  0  0  0  0  0  0  0
    0.5816    0.5155   -2.5112 H   0  0  0  0  0  0  0  0  0  0  0  0
   -0.2597    1.7822   -1.6097 H   0  0  0  0  0  0  0  0  0  0  0  0
    1.4055    4.9053    0.5770 H   0  0  0  0  0  0  0  0  0  0  0  0
   -1.0379   -1.1101   -1.4981 H   0  0  0  0  0  0  0  0  0  0  0  0
   -3.2347   -0.0986   -0.7508 H   0  0  0  0  0  0  0  0  0  0  0  0
   -2.3233    1.4009   -0.5344 H   0  0  0  0  0  0  0  0  0  0  0  0
   -2.2277    1.1452   -3.1487 H   0  0  0  0  0  0  0  0  0  0  0  0
   -2.8756   -0.4750   -3.0573 H   0  0  0  0  0  0  0  0  0  0  0  0
   -1.3186   -0.1973   -3.8002 H   0  0  0  0  0  0  0  0  0  0  0  0
   -0.8050   -0.0319    0.8004 H   0  0  0  0  0  0  0  0  0  0  0  0
   -3.1579   -1.7339    1.1292 H   0  0  0  0  0  0  0  0  0  0  0  0
   -1.6709   -1.8453    2.0401 H   0  0  0  0  0  0  0  0  0  0  0  0
   -1.6714   -2.1762    0.3244 H   0  0  0  0  0  0  0  0  0  0  0  0
   -3.4098    0.6758    1.9635 H   0  0  0  0  0  0  0  0  0  0  0  0
   -2.0677    1.7696    1.7277 H   0  0  0  0  0  0  0  0  0  0  0  0
   -1.9252    0.4420    2.8547 H   0  0  0  0  0  0  0  0  0  0  0  0
  1  2  1  0  0  0  0
  1  3  1  0  0  0  0
  2  4  2  0  0  0  0
  2  5  1  0  0  0  0
  3  6  2  0  0  0  0
  3  7  1  0  0  0  0
  4  8  1  0  0  0  0
  4  9  1  0  0  0  0
  5 10  2  0  0  0  0
  5 24  1  0  0  0  0
  6 11  1  0  0  0  0
  6  8  1  0  0  0  0
  7 12  2  0  0  0  0
  7 25  1  0  0  0  0
  8 13  1  0  0  0  0
  9 14  2  0  0  0  0
  9 26  1  0  0  0  0
 10 14  1  0  0  0  0
 10 27  1  0  0  0  0
 11 15  2  0  0  0  0
 11 28  1  0  0  0  0
 12 15  1  0  0  0  0
 12 29  1  0  0  0  0
 13 16  1  0  0  0  0
 13 30  1  0  0  0  0
 13 31  1  0  0  0  0
 14 17  1  0  0  0  0
 15 32  1  0  0  0  0
 16 18  1  0  0  0  0
 16 19  1  0  0  0  0
 16 33  1  1  0  0  0
 17 20  3  0  0  0  0
 18 21  1  0  0  0  0
 18 34  1  0  0  0  0
 18 35  1  0  0  0  0
 19 36  1  0  0  0  0
 19 37  1  0  0  0  0
 19 38  1  0  0  0  0
 21 22  1  0  0  0  0
 21 23  1  0  0  0  0
 21 39  1  0  0  0  0
 22 40  1  0  0  0  0
 22 41  1  0  0  0  0
 22 42  1  0  0  0  0
 23 43  1  0  0  0  0
 23 44  1  0  0  0  0
 23 45  1  0  0  0  0
M  CHG  1  21   1
M  END
>  <Column 1>
C[C@@H](CN1c2ccccc2Sc2ccc(C#N)cc21)C[NH+](C)C ZINC000000000188

>  <Column 2>
Decoy13

>  <MMFF94 Energy>
77.979

$$$$
Decoy14
 OpenBabel07082414533D

 30 30  0  0  1  0  0  0  0  0999 V2000
    2.6983   -3.0708   -1.0229 O   0  0  0  0  0  0  0  0  0  0  0  0
    2.6008   -2.7656    0.2024 C   0  0  0  0  0  0  0  0  0  0  0  0
    2.9952   -3.3921    1.2238 O   0  5  0  0  0  0  0  0  0  0  0  0
    1.9101   -1.4303    0.4827 C   0  0  0  0  0  0  0  0  0  0  0  0
    0.7372   -1.0963   -0.4597 C   0  0  2  0  0  0  0  0  0  0  0  0
    1.2229   -1.0694   -1.8142 O   0  0  0  0  0  0  0  0  0  0  0  0
    0.1891    0.3443   -0.1664 C   0  0  0  0  0  0  0  0  0  0  0  0
   -0.3551   -2.1731   -0.3798 C   0  0  0  0  0  0  0  0  0  0  0  0
   -0.8398    0.8240   -1.2175 C   0  0  0  0  0  0  0  0  0  0  0  0
   -0.3957    0.5224    1.2494 C   0  0  0  0  0  0  0  0  0  0  0  0
   -1.2931    2.2603   -0.9585 C   0  0  0  0  0  0  0  0  0  0  0  0
   -0.8602    1.9573    1.5012 C   0  0  0  0  0  0  0  0  0  0  0  0
   -1.8562    2.4246    0.4475 C   0  0  0  0  0  0  0  0  0  0  0  0
    2.6401   -0.6532    0.3932 H   0  0  0  0  0  0  0  0  0  0  0  0
    1.4931   -1.5084    1.4650 H   0  0  0  0  0  0  0  0  0  0  0  0
    1.9165   -0.3962   -1.8957 H   0  0  0  0  0  0  0  0  0  0  0  0
    1.0604    0.9620   -0.2313 H   0  0  0  0  0  0  0  0  0  0  0  0
    0.0730   -3.1315   -0.5876 H   0  0  0  0  0  0  0  0  0  0  0  0
   -1.1189   -1.9603   -1.0983 H   0  0  0  0  0  0  0  0  0  0  0  0
   -0.7803   -2.1777    0.6021 H   0  0  0  0  0  0  0  0  0  0  0  0
   -1.6940    0.1805   -1.1839 H   0  0  0  0  0  0  0  0  0  0  0  0
   -0.3704    0.7930   -2.1786 H   0  0  0  0  0  0  0  0  0  0  0  0
    0.3565    0.2718    1.9679 H   0  0  0  0  0  0  0  0  0  0  0  0
   -1.2462   -0.1207    1.3389 H   0  0  0  0  0  0  0  0  0  0  0  0
   -2.0506    2.5189   -1.6686 H   0  0  0  0  0  0  0  0  0  0  0  0
   -0.4431    2.9028   -1.0563 H   0  0  0  0  0  0  0  0  0  0  0  0
   -0.0085    2.6048    1.4836 H   0  0  0  0  0  0  0  0  0  0  0  0
   -1.3468    1.9862    2.4537 H   0  0  0  0  0  0  0  0  0  0  0  0
   -2.7521    1.8460    0.5339 H   0  0  0  0  0  0  0  0  0  0  0  0
   -2.0584    3.4625    0.6110 H   0  0  0  0  0  0  0  0  0  0  0  0
  1  2  2  0  0  0  0
  2  3  1  0  0  0  0
  2  4  1  0  0  0  0
  4  5  1  0  0  0  0
  4 14  1  0  0  0  0
  4 15  1  0  0  0  0
  5  6  1  6  0  0  0
  5  7  1  0  0  0  0
  5  8  1  0  0  0  0
  6 16  1  0  0  0  0
  7  9  1  0  0  0  0
  7 10  1  0  0  0  0
  7 17  1  0  0  0  0
  8 18  1  0  0  0  0
  8 19  1  0  0  0  0
  8 20  1  0  0  0  0
  9 11  1  0  0  0  0
  9 21  1  0  0  0  0
  9 22  1  0  0  0  0
 10 12  1  0  0  0  0
 10 23  1  0  0  0  0
 10 24  1  0  0  0  0
 11 13  1  0  0  0  0
 11 25  1  0  0  0  0
 11 26  1  0  0  0  0
 12 13  1  0  0  0  0
 12 27  1  0  0  0  0
 12 28  1  0  0  0  0
 13 29  1  0  0  0  0
 13 30  1  0  0  0  0
M  CHG  1   3  -1
M  END
>  <Column 1>
C[C@](O)(CC(=O)[O-])C1CCCCC1 ZINC000000000193

>  <Column 2>
Decoy14

>  <MMFF94 Energy>
6.125

$$$$
Decoy15
 OpenBabel07082414533D

 30 30  0  0  1  0  0  0  0  0999 V2000
    0.9296   -2.3250   -2.1389 O   0  0  0  0  0  0  0  0  0  0  0  0
    1.0783   -1.0773   -2.0197 C   0  0  0  0  0  0  0  0  0  0  0  0
    1.3540   -0.2069   -2.8989 O   0  5  0  0  0  0  0  0  0  0  0  0
    0.8931   -0.5293   -0.5929 C   0  0  2  0  0  0  0  0  0  0  0  0
    0.0242    0.7588   -0.6131 C   0  0  0  0  0  0  0  0  0  0  0  0
    2.3291   -0.3323   -0.0568 C   0  0  0  0  0  0  0  0  0  0  0  0
    0.7073    1.8002   -1.3323 O   0  0  0  0  0  0  0  0  0  0  0  0
   -0.2209    1.3165    0.8075 C   0  0  0  0  0  0  0  0  0  0  0  0
   -1.3526    0.5550   -1.2881 C   0  0  0  0  0  0  0  0  0  0  0  0
    2.5253   -0.9928    1.3033 C   0  0  0  0  0  0  0  0  0  0  0  0
   -1.1546    0.4461    1.6463 C   0  0  0  0  0  0  0  0  0  0  0  0
   -2.2929   -0.3323   -0.4759 C   0  0  0  0  0  0  0  0  0  0  0  0
   -2.4846    0.2054    0.9389 C   0  0  0  0  0  0  0  0  0  0  0  0
    0.3555   -1.1877    0.0571 H   0  0  0  0  0  0  0  0  0  0  0  0
    2.5223    0.7159    0.0369 H   0  0  0  0  0  0  0  0  0  0  0  0
    3.0060   -0.7898   -0.7477 H   0  0  0  0  0  0  0  0  0  0  0  0
    1.5776    1.9524   -0.9319 H   0  0  0  0  0  0  0  0  0  0  0  0
   -0.6533    2.2913    0.7196 H   0  0  0  0  0  0  0  0  0  0  0  0
    0.7253    1.3382    1.3067 H   0  0  0  0  0  0  0  0  0  0  0  0
   -1.1988    0.1018   -2.2451 H   0  0  0  0  0  0  0  0  0  0  0  0
   -1.8133    1.5173   -1.3696 H   0  0  0  0  0  0  0  0  0  0  0  0
    1.8578   -0.5515    2.0137 H   0  0  0  0  0  0  0  0  0  0  0  0
    3.5353   -0.8504    1.6266 H   0  0  0  0  0  0  0  0  0  0  0  0
    2.3205   -2.0400    1.2241 H   0  0  0  0  0  0  0  0  0  0  0  0
   -1.3411    0.9359    2.5791 H   0  0  0  0  0  0  0  0  0  0  0  0
   -0.6811   -0.5010    1.7999 H   0  0  0  0  0  0  0  0  0  0  0  0
   -1.8799   -1.3178   -0.4205 H   0  0  0  0  0  0  0  0  0  0  0  0
   -3.2459   -0.3459   -0.9623 H   0  0  0  0  0  0  0  0  0  0  0  0
   -3.0201    1.1303    0.8869 H   0  0  0  0  0  0  0  0  0  0  0  0
   -3.0280   -0.5268    1.4989 H   0  0  0  0  0  0  0  0  0  0  0  0
  1  2  2  0  0  0  0
  2  3  1  0  0  0  0
  2  4  1  0  0  0  0
  4  5  1  0  0  0  0
  4  6  1  0  0  0  0
  4 14  1  1  0  0  0
  5  7  1  0  0  0  0
  5  8  1  0  0  0  0
  5  9  1  0  0  0  0
  6 10  1  0  0  0  0
  6 15  1  0  0  0  0
  6 16  1  0  0  0  0
  7 17  1  0  0  0  0
  8 11  1  0  0  0  0
  8 18  1  0  0  0  0
  8 19  1  0  0  0  0
  9 12  1  0  0  0  0
  9 20  1  0  0  0  0
  9 21  1  0  0  0  0
 10 22  1  0  0  0  0
 10 23  1  0  0  0  0
 10 24  1  0  0  0  0
 11 13  1  0  0  0  0
 11 25  1  0  0  0  0
 11 26  1  0  0  0  0
 12 13  1  0  0  0  0
 12 27  1  0  0  0  0
 12 28  1  0  0  0  0
 13 29  1  0  0  0  0
 13 30  1  0  0  0  0
M  CHG  1   3  -1
M  END
>  <Column 1>
CC[C@H](C(=O)[O-])C1(O)CCCCC1 ZINC000000000194

>  <Column 2>
Decoy15

>  <MMFF94 Energy>
8.7491

$$$$
Decoy16
 OpenBabel07082414533D

 41 42  0  0  1  0  0  0  0  0999 V2000
    1.6947    1.5063    0.9413 S   0  0  0  0  0  0  0  0  0  0  0  0
    1.1058    1.1818   -0.6449 C   0  0  0  0  0  0  0  0  0  0  0  0
    3.3203    1.3079    0.4550 C   0  0  0  0  0  0  0  0  0  0  0  0
   -0.3025    1.2169   -0.9013 C   0  0  0  0  0  0  0  0  0  0  0  0
    2.1513    0.9328   -1.5170 C   0  0  0  0  0  0  0  0  0  0  0  0
    3.4255    0.9996   -0.8819 C   0  0  0  0  0  0  0  0  0  0  0  0
   -0.9981    2.4495   -1.1625 C   0  0  0  0  0  0  0  0  0  0  0  0
   -0.9991    0.0574   -0.9014 C   0  0  0  0  0  0  0  0  0  0  0  0
   -2.4654    2.8530   -0.3397 S   0  0  0  0  0  0  0  0  0  0  0  0
   -0.6199    3.4913   -1.9962 C   0  0  0  0  0  0  0  0  0  0  0  0
   -0.4764   -1.3319   -0.6318 C   0  0  1  0  0  0  0  0  0  0  0  0
   -2.5912    4.3590   -1.1322 C   0  0  0  0  0  0  0  0  0  0  0  0
   -1.5387    4.5808   -1.9882 C   0  0  0  0  0  0  0  0  0  0  0  0
   -0.2482   -1.5670    0.8627 N   0  3  0  0  0  0  0  0  0  0  0  0
   -1.4024   -2.3982   -1.2273 C   0  0  0  0  0  0  0  0  0  0  0  0
    0.6010   -2.7827    1.1912 C   0  0  0  0  0  0  0  0  0  0  0  0
   -1.5203   -1.5200    1.6965 C   0  0  0  0  0  0  0  0  0  0  0  0
    2.0509   -2.5754    0.7942 C   0  0  0  0  0  0  0  0  0  0  0  0
   -1.2283   -0.9457    3.0725 C   0  0  0  0  0  0  0  0  0  0  0  0
    4.1283    1.4075    1.0892 H   0  0  0  0  0  0  0  0  0  0  0  0
    2.0222    0.7216   -2.5189 H   0  0  0  0  0  0  0  0  0  0  0  0
    4.3213    0.8360   -1.3674 H   0  0  0  0  0  0  0  0  0  0  0  0
   -2.0069    0.1319   -1.1106 H   0  0  0  0  0  0  0  0  0  0  0  0
    0.2408    3.4789   -2.5655 H   0  0  0  0  0  0  0  0  0  0  0  0
    0.4734   -1.4166   -1.1172 H   0  0  0  0  0  0  0  0  0  0  0  0
   -3.3661    5.0248   -0.9861 H   0  0  0  0  0  0  0  0  0  0  0  0
   -1.4271    5.4345   -2.5572 H   0  0  0  0  0  0  0  0  0  0  0  0
    0.3100   -0.7600    1.1413 H   0  0  0  0  0  0  0  0  0  0  0  0
   -2.3630   -2.3377   -0.7599 H   0  0  0  0  0  0  0  0  0  0  0  0
   -0.9841   -3.3685   -1.0585 H   0  0  0  0  0  0  0  0  0  0  0  0
   -1.5066   -2.2329   -2.2793 H   0  0  0  0  0  0  0  0  0  0  0  0
    0.2142   -3.6293    0.6635 H   0  0  0  0  0  0  0  0  0  0  0  0
    0.5631   -2.9414    2.2487 H   0  0  0  0  0  0  0  0  0  0  0  0
   -1.9093   -2.5111    1.8030 H   0  0  0  0  0  0  0  0  0  0  0  0
   -2.2364   -0.8960    1.2038 H   0  0  0  0  0  0  0  0  0  0  0  0
    2.1120   -2.4145   -0.2619 H   0  0  0  0  0  0  0  0  0  0  0  0
    2.6200   -3.4428    1.0563 H   0  0  0  0  0  0  0  0  0  0  0  0
    2.4430   -1.7228    1.3082 H   0  0  0  0  0  0  0  0  0  0  0  0
   -0.5125   -1.5641    3.5725 H   0  0  0  0  0  0  0  0  0  0  0  0
   -2.1321   -0.9124    3.6442 H   0  0  0  0  0  0  0  0  0  0  0  0
   -0.8346    0.0439    2.9697 H   0  0  0  0  0  0  0  0  0  0  0  0
  1  2  1  0  0  0  0
  1  3  1  0  0  0  0
  2  4  1  0  0  0  0
  2  5  2  0  0  0  0
  3  6  2  0  0  0  0
  3 20  1  0  0  0  0
  4  7  1  0  0  0  0
  4  8  2  0  0  0  0
  5  6  1  0  0  0  0
  5 21  1  0  0  0  0
  6 22  1  0  0  0  0
  7  9  1  0  0  0  0
  7 10  2  0  0  0  0
  8 11  1  0  0  0  0
  8 23  1  0  0  0  0
  9 12  1  0  0  0  0
 10 13  1  0  0  0  0
 10 24  1  0  0  0  0
 11 14  1  0  0  0  0
 11 15  1  0  0  0  0
 11 25  1  6  0  0  0
 12 13  2  0  0  0  0
 12 26  1  0  0  0  0
 13 27  1  0  0  0  0
 14 16  1  0  0  0  0
 14 17  1  0  0  0  0
 14 28  1  0  0  0  0
 15 29  1  0  0  0  0
 15 30  1  0  0  0  0
 15 31  1  0  0  0  0
 16 18  1  0  0  0  0
 16 32  1  0  0  0  0
 16 33  1  0  0  0  0
 17 19  1  0  0  0  0
 17 34  1  0  0  0  0
 17 35  1  0  0  0  0
 18 36  1  0  0  0  0
 18 37  1  0  0  0  0
 18 38  1  0  0  0  0
 19 39  1  0  0  0  0
 19 40  1  0  0  0  0
 19 41  1  0  0  0  0
M  CHG  1  14   1
M  END
>  <Column 1>
CC[NH+](CC)[C@@H](C)C=C(c1cccs1)c1cccs1 ZINC000000000216

>  <Column 2>
Decoy16

>  <MMFF94 Energy>
10.145

$$$$
Decoy17
 OpenBabel07082414533D

 38 39  0  0  1  0  0  0  0  0999 V2000
    1.2229    2.3527    0.7525 S   0  0  0  0  0  0  0  0  0  0  0  0
    0.0635    1.6515   -0.3128 C   0  0  0  0  0  0  0  0  0  0  0  0
    0.0629    3.3904    1.4544 C   0  0  0  0  0  0  0  0  0  0  0  0
    0.4359    0.6404   -1.2620 C   0  0  0  0  0  0  0  0  0  0  0  0
   -1.1740    2.2532   -0.1461 C   0  0  0  0  0  0  0  0  0  0  0  0
   -1.1783    3.2403    0.8812 C   0  0  0  0  0  0  0  0  0  0  0  0
    0.4509    0.8832   -2.6843 C   0  0  0  0  0  0  0  0  0  0  0  0
    0.7269   -0.6125   -0.8382 C   0  0  0  0  0  0  0  0  0  0  0  0
    1.1020    2.3611   -3.3036 S   0  0  0  0  0  0  0  0  0  0  0  0
    0.0030    0.0895   -3.7320 C   0  0  0  0  0  0  0  0  0  0  0  0
    0.7722   -1.1549    0.5718 C   0  0  1  0  0  0  0  0  0  0  0  0
    0.7880    1.9210   -4.9209 C   0  0  0  0  0  0  0  0  0  0  0  0
    0.1972    0.6838   -5.0133 C   0  0  0  0  0  0  0  0  0  0  0  0
   -0.5947   -1.1542    1.2538 N   0  3  2  0  0  0  0  0  0  0  0  0
    1.3977   -2.5551    0.5981 C   0  0  0  0  0  0  0  0  0  0  0  0
   -0.5919   -1.4279    2.7451 C   0  0  0  0  0  0  0  0  0  0  0  0
   -1.6343   -1.9967    0.5599 C   0  0  0  0  0  0  0  0  0  0  0  0
    0.1359   -0.3434    3.5162 C   0  0  0  0  0  0  0  0  0  0  0  0
    0.2688    4.0524    2.2188 H   0  0  0  0  0  0  0  0  0  0  0  0
   -2.0055    2.0114   -0.7075 H   0  0  0  0  0  0  0  0  0  0  0  0
   -2.0130    3.7784    1.1617 H   0  0  0  0  0  0  0  0  0  0  0  0
    0.9488   -1.2922   -1.5824 H   0  0  0  0  0  0  0  0  0  0  0  0
   -0.4277   -0.8385   -3.5966 H   0  0  0  0  0  0  0  0  0  0  0  0
    1.3930   -0.4901    1.1354 H   0  0  0  0  0  0  0  0  0  0  0  0
    1.0149    2.5140   -5.7345 H   0  0  0  0  0  0  0  0  0  0  0  0
   -0.0736    0.2381   -5.9038 H   0  0  0  0  0  0  0  0  0  0  0  0
   -0.8681   -0.1768    1.1524 H   0  0  0  0  0  0  0  0  0  0  0  0
    0.7853   -3.2299    0.0372 H   0  0  0  0  0  0  0  0  0  0  0  0
    1.4686   -2.8951    1.6102 H   0  0  0  0  0  0  0  0  0  0  0  0
    2.3755   -2.5171    0.1653 H   0  0  0  0  0  0  0  0  0  0  0  0
   -0.1071   -2.3648    2.9242 H   0  0  0  0  0  0  0  0  0  0  0  0
   -1.6076   -1.4497    3.0808 H   0  0  0  0  0  0  0  0  0  0  0  0
   -1.3736   -3.0305    0.6497 H   0  0  0  0  0  0  0  0  0  0  0  0
   -1.6780   -1.7285   -0.4750 H   0  0  0  0  0  0  0  0  0  0  0  0
   -2.5893   -1.8291    1.0124 H   0  0  0  0  0  0  0  0  0  0  0  0
    1.1564   -0.3024    3.1970 H   0  0  0  0  0  0  0  0  0  0  0  0
    0.0981   -0.5633    4.5627 H   0  0  0  0  0  0  0  0  0  0  0  0
   -0.3333    0.6006    3.3329 H   0  0  0  0  0  0  0  0  0  0  0  0
  1  2  1  0  0  0  0
  1  3  1  0  0  0  0
  2  4  1  0  0  0  0
  2  5  2  0  0  0  0
  3  6  2  0  0  0  0
  3 19  1  0  0  0  0
  4  7  1  0  0  0  0
  4  8  2  0  0  0  0
  5  6  1  0  0  0  0
  5 20  1  0  0  0  0
  6 21  1  0  0  0  0
  7  9  1  0  0  0  0
  7 10  2  0  0  0  0
  8 11  1  0  0  0  0
  8 22  1  0  0  0  0
  9 12  1  0  0  0  0
 10 13  1  0  0  0  0
 10 23  1  0  0  0  0
 11 14  1  0  0  0  0
 11 15  1  0  0  0  0
 11 24  1  1  0  0  0
 12 13  2  0  0  0  0
 12 25  1  0  0  0  0
 13 26  1  0  0  0  0
 14 16  1  0  0  0  0
 14 17  1  0  0  0  0
 14 27  1  6  0  0  0
 15 28  1  0  0  0  0
 15 29  1  0  0  0  0
 15 30  1  0  0  0  0
 16 18  1  0  0  0  0
 16 31  1  0  0  0  0
 16 32  1  0  0  0  0
 17 33  1  0  0  0  0
 17 34  1  0  0  0  0
 17 35  1  0  0  0  0
 18 36  1  0  0  0  0
 18 37  1  0  0  0  0
 18 38  1  0  0  0  0
M  CHG  1  14   1
M  END
>  <Column 1>
CC[N@H+](C)[C@@H](C)C=C(c1cccs1)c1cccs1 ZINC000000000272

>  <Column 2>
Decoy17

>  <MMFF94 Energy>
13.553

$$$$
Decoy18
 OpenBabel07082414533D

 30 32  0  0  1  0  0  0  0  0999 V2000
    2.4758   -3.1840   -2.6528 F   0  0  0  0  0  0  0  0  0  0  0  0
    1.7785   -2.2862   -1.9436 C   0  0  0  0  0  0  0  0  0  0  0  0
    0.5736   -1.8119   -2.4297 C   0  0  0  0  0  0  0  0  0  0  0  0
    2.2806   -1.8427   -0.7270 C   0  0  0  0  0  0  0  0  0  0  0  0
   -0.1397   -0.8658   -1.6825 C   0  0  0  0  0  0  0  0  0  0  0  0
    1.5612   -0.9091    0.0373 C   0  0  0  0  0  0  0  0  0  0  0  0
   -1.4247   -0.3553   -2.2269 C   0  0  0  0  0  0  0  0  0  0  0  0
    0.3374   -0.3930   -0.4371 C   0  0  0  0  0  0  0  0  0  0  0  0
    2.1360   -0.4377    1.3402 C   0  0  0  0  0  0  0  0  0  0  0  0
   -1.9250   -0.9021   -3.2038 O   0  0  0  0  0  0  0  0  0  0  0  0
   -2.0281    0.7809   -1.5183 C   0  0  0  0  0  0  0  0  0  0  0  0
   -0.4166    0.5592    0.2981 N   0  0  0  0  0  0  0  0  0  0  0  0
    1.0306    0.0545    2.2535 C   0  0  0  0  0  0  0  0  0  0  0  0
   -3.1839    1.5811   -2.0780 C   0  0  0  0  0  0  0  0  0  0  0  0
   -1.4996    1.1480   -0.3441 C   0  0  0  0  0  0  0  0  0  0  0  0
    0.1857    1.1127    1.5342 C   0  0  2  0  0  0  0  0  0  0  0  0
   -2.9727    2.1523   -3.1855 O   0  0  0  0  0  0  0  0  0  0  0  0
   -4.1930    1.6761   -1.3157 O   0  5  0  0  0  0  0  0  0  0  0  0
   -0.8710    1.6160    2.5279 C   0  0  0  0  0  0  0  0  0  0  0  0
    0.2046   -2.1509   -3.3319 H   0  0  0  0  0  0  0  0  0  0  0  0
    3.1855   -2.2003   -0.3832 H   0  0  0  0  0  0  0  0  0  0  0  0
    2.8231    0.3613    1.1547 H   0  0  0  0  0  0  0  0  0  0  0  0
    2.6423   -1.2530    1.8134 H   0  0  0  0  0  0  0  0  0  0  0  0
    1.4630    0.4844    3.1328 H   0  0  0  0  0  0  0  0  0  0  0  0
    0.4045   -0.7706    2.5221 H   0  0  0  0  0  0  0  0  0  0  0  0
   -1.9413    1.9497    0.1326 H   0  0  0  0  0  0  0  0  0  0  0  0
    0.7932    1.9350    1.2186 H   0  0  0  0  0  0  0  0  0  0  0  0
   -1.4807    0.7962    2.8459 H   0  0  0  0  0  0  0  0  0  0  0  0
   -1.4841    2.3535    2.0535 H   0  0  0  0  0  0  0  0  0  0  0  0
   -0.3846    2.0491    3.3769 H   0  0  0  0  0  0  0  0  0  0  0  0
  1  2  1  0  0  0  0
  2  3  2  0  0  0  0
  2  4  1  0  0  0  0
  3  5  1  0  0  0  0
  3 20  1  0  0  0  0
  4  6  2  0  0  0  0
  4 21  1  0  0  0  0
  5  7  1  0  0  0  0
  5  8  2  0  0  0  0
  6  9  1  0  0  0  0
  6  8  1  0  0  0  0
  7 10  2  0  0  0  0
  7 11  1  0  0  0  0
  8 12  1  0  0  0  0
  9 13  1  0  0  0  0
  9 22  1  0  0  0  0
  9 23  1  0  0  0  0
 11 14  1  0  0  0  0
 11 15  2  0  0  0  0
 12 16  1  0  0  0  0
 12 15  1  0  0  0  0
 13 16  1  0  0  0  0
 13 24  1  0  0  0  0
 13 25  1  0  0  0  0
 14 17  2  0  0  0  0
 14 18  1  0  0  0  0
 15 26  1  0  0  0  0
 16 19  1  0  0  0  0
 16 27  1  6  0  0  0
 19 28  1  0  0  0  0
 19 29  1  0  0  0  0
 19 30  1  0  0  0  0
M  CHG  1  18  -1
M  END
>  <Column 1>
C[C@H]1CCc2cc(F)cc3c(=O)c(C(=O)[O-])cn1c23 ZINC000000000315

>  <Column 2>
Decoy18

>  <MMFF94 Energy>
30.221

$$$$
Decoy19
 OpenBabel07082414533D

 26 27  0  0  1  0  0  0  0  0999 V2000
    3.9571    2.9888   -0.6148 F   0  0  0  0  0  0  0  0  0  0  0  0
    2.6254    3.2544   -0.5303 C   0  0  0  0  0  0  0  0  0  0  0  0
    2.3304    4.0655   -1.5811 F   0  0  0  0  0  0  0  0  0  0  0  0
    2.4633    4.0114    0.5898 F   0  0  0  0  0  0  0  0  0  0  0  0
    1.7713    2.0066   -0.5176 C   0  0  0  0  0  0  0  0  0  0  0  0
    2.2151    0.8282   -1.1298 C   0  0  0  0  0  0  0  0  0  0  0  0
    0.5042    2.0169    0.0814 C   0  0  0  0  0  0  0  0  0  0  0  0
    1.4138   -0.3170   -1.1329 C   0  0  0  0  0  0  0  0  0  0  0  0
   -0.2982    0.8710    0.0793 C   0  0  0  0  0  0  0  0  0  0  0  0
    0.1410   -0.3101   -0.5386 C   0  0  0  0  0  0  0  0  0  0  0  0
   -0.6788   -1.5839   -0.5500 C   0  0  1  0  0  0  0  0  0  0  0  0
   -0.4613   -2.2613    0.7087 O   0  0  0  0  0  0  0  0  0  0  0  0
   -2.1954   -1.4233   -0.6676 C   0  0  0  0  0  0  0  0  0  0  0  0
   -1.5927   -2.0884    1.3882 C   0  0  0  0  0  0  0  0  0  0  0  0
   -2.6062   -1.6031    0.7156 N   0  0  0  0  0  0  0  0  0  0  0  0
   -1.5925   -2.4190    2.6456 N   0  3  0  0  0  0  0  0  0  0  0  0
    3.1421    0.8050   -1.5828 H   0  0  0  0  0  0  0  0  0  0  0  0
    0.1590    2.8802    0.5294 H   0  0  0  0  0  0  0  0  0  0  0  0
    1.7623   -1.1802   -1.5783 H   0  0  0  0  0  0  0  0  0  0  0  0
   -1.2229    0.8944    0.5369 H   0  0  0  0  0  0  0  0  0  0  0  0
   -0.3513   -2.1053   -1.4251 H   0  0  0  0  0  0  0  0  0  0  0  0
   -2.6208   -2.1714   -1.3035 H   0  0  0  0  0  0  0  0  0  0  0  0
   -2.5066   -0.4960   -1.1013 H   0  0  0  0  0  0  0  0  0  0  0  0
   -3.4952   -1.3953    1.0839 H   0  0  0  0  0  0  0  0  0  0  0  0
   -0.7745   -2.7770    3.0603 H   0  0  0  0  0  0  0  0  0  0  0  0
   -2.4103   -2.3113    3.1830 H   0  0  0  0  0  0  0  0  0  0  0  0
  1  2  1  0  0  0  0
  2  3  1  0  0  0  0
  2  4  1  0  0  0  0
  2  5  1  0  0  0  0
  5  6  2  0  0  0  0
  5  7  1  0  0  0  0
  6  8  1  0  0  0  0
  6 17  1  0  0  0  0
  7  9  2  0  0  0  0
  7 18  1  0  0  0  0
  8 10  2  0  0  0  0
  8 19  1  0  0  0  0
  9 10  1  0  0  0  0
  9 20  1  0  0  0  0
 10 11  1  0  0  0  0
 11 12  1  0  0  0  0
 11 13  1  0  0  0  0
 11 21  1  6  0  0  0
 12 14  1  0  0  0  0
 13 15  1  0  0  0  0
 13 22  1  0  0  0  0
 13 23  1  0  0  0  0
 14 16  2  0  0  0  0
 14 15  1  0  0  0  0
 15 24  1  0  0  0  0
 16 25  1  0  0  0  0
 16 26  1  0  0  0  0
M  CHG  1  16   1
M  END
>  <Column 1>
[NH2+]=C1NC[C@@H](c2ccc(C(F)(F)F)cc2)O1 ZINC000000000318

>  <Column 2>
Decoy19

>  <MMFF94 Energy>
0.47344

$$$$
Decoy20
 OpenBabel07082414533D

 44 45  0  0  1  0  0  0  0  0999 V2000
   -0.4577   -2.1983    2.6567 S   0  0  0  0  0  0  0  0  0  0  0  0
   -0.3572   -2.2894    4.1072 O   0  0  0  0  0  0  0  0  0  0  0  0
    0.2984   -3.1433    1.8495 O   0  0  0  0  0  0  0  0  0  0  0  0
   -2.0028   -2.0856    2.2381 N   0  3  0  0  0  0  0  0  0  0  0  0
    0.2336   -0.5806    2.2992 C   0  0  0  0  0  0  0  0  0  0  0  0
   -2.5124   -2.2686    1.0763 C   0  0  0  0  0  0  0  0  0  0  0  0
    1.5979   -0.4717    2.0162 C   0  0  0  0  0  0  0  0  0  0  0  0
   -0.5946    0.5425    2.2629 C   0  0  0  0  0  0  0  0  0  0  0  0
   -3.7147   -2.2101    0.7834 O   0  5  0  0  0  0  0  0  0  0  0  0
   -1.9670   -2.5792   -0.1301 N   0  0  0  0  0  0  0  0  0  0  0  0
    2.1365    0.7751    1.6930 C   0  0  0  0  0  0  0  0  0  0  0  0
   -0.0507    1.7857    1.9370 C   0  0  0  0  0  0  0  0  0  0  0  0
   -0.9497   -1.7956   -0.8121 C   0  0  0  0  0  0  0  0  0  0  0  0
    1.3187    1.9164    1.6463 C   0  0  0  0  0  0  0  0  0  0  0  0
   -0.4122   -2.6130   -1.9953 C   0  0  0  0  0  0  0  0  0  0  0  0
   -1.5194   -0.4568   -1.3011 C   0  0  0  0  0  0  0  0  0  0  0  0
    1.9114    3.2608    1.2836 C   0  0  2  0  0  0  0  0  0  0  0  0
    0.6246   -1.8257   -2.7935 C   0  0  0  0  0  0  0  0  0  0  0  0
   -0.4807    0.3344   -2.0926 C   0  0  0  0  0  0  0  0  0  0  0  0
    1.6627    4.2116    2.3191 O   0  0  0  0  0  0  0  0  0  0  0  0
    1.3673    3.8096   -0.0292 C   0  0  0  0  0  0  0  0  0  0  0  0
    0.0756   -0.4794   -3.2572 C   0  0  0  0  0  0  0  0  0  0  0  0
   -2.6323   -1.8484    2.9570 H   0  0  0  0  0  0  0  0  0  0  0  0
    2.2030   -1.3072    2.0459 H   0  0  0  0  0  0  0  0  0  0  0  0
   -1.6006    0.4542    2.4753 H   0  0  0  0  0  0  0  0  0  0  0  0
   -2.2854   -3.3973   -0.5758 H   0  0  0  0  0  0  0  0  0  0  0  0
    3.1442    0.8591    1.4866 H   0  0  0  0  0  0  0  0  0  0  0  0
   -0.6602    2.6180    1.9091 H   0  0  0  0  0  0  0  0  0  0  0  0
   -0.1559   -1.5763   -0.1290 H   0  0  0  0  0  0  0  0  0  0  0  0
   -1.2269   -2.8685   -2.6402 H   0  0  0  0  0  0  0  0  0  0  0  0
    0.0583   -3.4932   -1.6095 H   0  0  0  0  0  0  0  0  0  0  0  0
   -1.8263    0.1211   -0.4545 H   0  0  0  0  0  0  0  0  0  0  0  0
   -2.3505   -0.6590   -1.9440 H   0  0  0  0  0  0  0  0  0  0  0  0
    2.9632    3.1037    1.1660 H   0  0  0  0  0  0  0  0  0  0  0  0
    0.9097   -2.3981   -3.6514 H   0  0  0  0  0  0  0  0  0  0  0  0
    1.4660   -1.6423   -2.1584 H   0  0  0  0  0  0  0  0  0  0  0  0
    0.3239    0.6017   -1.4398 H   0  0  0  0  0  0  0  0  0  0  0  0
   -0.9555    1.2070   -2.4900 H   0  0  0  0  0  0  0  0  0  0  0  0
    0.7064    4.3436    2.4140 H   0  0  0  0  0  0  0  0  0  0  0  0
    0.3143    3.9757    0.0628 H   0  0  0  0  0  0  0  0  0  0  0  0
    1.5501    3.1050   -0.8134 H   0  0  0  0  0  0  0  0  0  0  0  0
    1.8554    4.7336   -0.2591 H   0  0  0  0  0  0  0  0  0  0  0  0
   -0.7073   -0.6498   -3.9664 H   0  0  0  0  0  0  0  0  0  0  0  0
    0.8782    0.0743   -3.6978 H   0  0  0  0  0  0  0  0  0  0  0  0
  1  2  2  0  0  0  0
  1  3  2  0  0  0  0
  1  4  1  0  0  0  0
  1  5  1  0  0  0  0
  4  6  2  0  0  0  0
  4 23  1  0  0  0  0
  5  7  2  0  0  0  0
  5  8  1  0  0  0  0
  6  9  1  0  0  0  0
  6 10  1  0  0  0  0
  7 11  1  0  0  0  0
  7 24  1  0  0  0  0
  8 12  2  0  0  0  0
  8 25  1  0  0  0  0
 10 13  1  0  0  0  0
 10 26  1  0  0  0  0
 11 14  2  0  0  0  0
 11 27  1  0  0  0  0
 12 14  1  0  0  0  0
 12 28  1  0  0  0  0
 13 15  1  0  0  0  0
 13 16  1  0  0  0  0
 13 29  1  0  0  0  0
 14 17  1  0  0  0  0
 15 18  1  0  0  0  0
 15 30  1  0  0  0  0
 15 31  1  0  0  0  0
 16 19  1  0  0  0  0
 16 32  1  0  0  0  0
 16 33  1  0  0  0  0
 17 20  1  0  0  0  0
 17 21  1  0  0  0  0
 17 34  1  6  0  0  0
 18 22  1  0  0  0  0
 18 35  1  0  0  0  0
 18 36  1  0  0  0  0
 19 22  1  0  0  0  0
 19 37  1  0  0  0  0
 19 38  1  0  0  0  0
 20 39  1  0  0  0  0
 21 40  1  0  0  0  0
 21 41  1  0  0  0  0
 21 42  1  0  0  0  0
 22 43  1  0  0  0  0
 22 44  1  0  0  0  0
M  CHG  2   4   1   9  -1
M  END
>  <Column 1>
C[C@@H](O)c1ccc(S(=O)(=O)N=C([O-])NC2CCCCC2)cc1 ZINC000000000374

>  <Column 2>
Decoy20

>  <MMFF94 Energy>
-47.424

$$$$
Decoy21
 OpenBabel07082414533D

 36 37  0  0  1  0  0  0  0  0999 V2000
   -3.3700   -0.0000   -4.5558 O   0  0  0  0  0  0  0  0  0  0  0  0
   -2.2000    0.4647   -4.4178 C   0  0  0  0  0  0  0  0  0  0  0  0
   -1.1861    0.2838   -5.1562 O   0  5  0  0  0  0  0  0  0  0  0  0
   -1.9732    1.4125   -3.2192 C   0  0  2  0  0  0  0  0  0  0  0  0
   -1.4903    0.6602   -1.9877 C   0  0  0  0  0  0  0  0  0  0  0  0
   -3.2176    2.2403   -2.9004 C   0  0  0  0  0  0  0  0  0  0  0  0
   -0.2991    1.0502   -1.3540 C   0  0  0  0  0  0  0  0  0  0  0  0
   -2.2381   -0.4083   -1.4465 C   0  0  0  0  0  0  0  0  0  0  0  0
    0.1158    0.3673   -0.2210 C   0  0  0  0  0  0  0  0  0  0  0  0
   -1.8172   -1.0829   -0.2969 C   0  0  0  0  0  0  0  0  0  0  0  0
   -0.6353   -0.6864    0.3023 C   0  0  0  0  0  0  0  0  0  0  0  0
    1.3261    0.6298    0.6157 C   0  0  0  0  0  0  0  0  0  0  0  0
   -0.0015   -1.2317    1.5408 C   0  0  0  0  0  0  0  0  0  0  0  0
    1.4437   -0.6871    1.4224 C   0  0  2  0  0  0  0  0  0  0  0  0
    2.1521   -0.5163    2.7828 C   0  0  0  0  0  0  0  0  0  0  0  0
    3.5669    0.0453    2.6117 C   0  0  0  0  0  0  0  0  0  0  0  0
    2.2220   -1.8409    3.5489 C   0  0  0  0  0  0  0  0  0  0  0  0
   -1.2000    2.0926   -3.5098 H   0  0  0  0  0  0  0  0  0  0  0  0
   -4.0133    1.5888   -2.6050 H   0  0  0  0  0  0  0  0  0  0  0  0
   -3.5116    2.7913   -3.7692 H   0  0  0  0  0  0  0  0  0  0  0  0
   -2.9991    2.9204   -2.1037 H   0  0  0  0  0  0  0  0  0  0  0  0
    0.2594    1.8340   -1.7265 H   0  0  0  0  0  0  0  0  0  0  0  0
   -3.1140   -0.6973   -1.9095 H   0  0  0  0  0  0  0  0  0  0  0  0
   -2.3746   -1.8578    0.0952 H   0  0  0  0  0  0  0  0  0  0  0  0
    1.1790    1.4705    1.2611 H   0  0  0  0  0  0  0  0  0  0  0  0
    2.2011    0.8710    0.0491 H   0  0  0  0  0  0  0  0  0  0  0  0
   -0.0155   -2.3016    1.5471 H   0  0  0  0  0  0  0  0  0  0  0  0
   -0.4995   -0.9471    2.4441 H   0  0  0  0  0  0  0  0  0  0  0  0
    2.0765   -1.3882    0.9195 H   0  0  0  0  0  0  0  0  0  0  0  0
    1.5681    0.1804    3.3471 H   0  0  0  0  0  0  0  0  0  0  0  0
    4.1590   -0.6451    2.0481 H   0  0  0  0  0  0  0  0  0  0  0  0
    4.0108    0.1931    3.5740 H   0  0  0  0  0  0  0  0  0  0  0  0
    3.5193    0.9802    2.0935 H   0  0  0  0  0  0  0  0  0  0  0  0
    2.8045   -2.5447    2.9919 H   0  0  0  0  0  0  0  0  0  0  0  0
    1.2332   -2.2259    3.6865 H   0  0  0  0  0  0  0  0  0  0  0  0
    2.6771   -1.6773    4.5034 H   0  0  0  0  0  0  0  0  0  0  0  0
  1  2  2  0  0  0  0
  2  3  1  0  0  0  0
  2  4  1  0  0  0  0
  4  5  1  0  0  0  0
  4  6  1  0  0  0  0
  4 18  1  6  0  0  0
  5  7  2  0  0  0  0
  5  8  1  0  0  0  0
  6 19  1  0  0  0  0
  6 20  1  0  0  0  0
  6 21  1  0  0  0  0
  7  9  1  0  0  0  0
  7 22  1  0  0  0  0
  8 10  2  0  0  0  0
  8 23  1  0  0  0  0
  9 11  2  0  0  0  0
  9 12  1  0  0  0  0
 10 11  1  0  0  0  0
 10 24  1  0  0  0  0
 11 13  1  0  0  0  0
 12 14  1  0  0  0  0
 12 25  1  0  0  0  0
 12 26  1  0  0  0  0
 13 14  1  0  0  0  0
 13 27  1  0  0  0  0
 13 28  1  0  0  0  0
 14 15  1  0  0  0  0
 14 29  1  6  0  0  0
 15 16  1  0  0  0  0
 15 17  1  0  0  0  0
 15 30  1  0  0  0  0
 16 31  1  0  0  0  0
 16 32  1  0  0  0  0
 16 33  1  0  0  0  0
 17 34  1  0  0  0  0
 17 35  1  0  0  0  0
 17 36  1  0  0  0  0
M  CHG  1   3  -1
M  END
>  <Column 1>
CC(C)[C@H]1Cc2ccc([C@H](C)C(=O)[O-])cc2C1 ZINC000000000403

>  <Column 2>
Decoy21

>  <MMFF94 Energy>
69.136

$$$$
Decoy22
 OpenBabel07082414533D

 40 42  0  0  1  0  0  0  0  0999 V2000
    0.7316    3.5697   -1.1890 S   0  0  0  0  0  0  0  0  0  0  0  0
   -0.5307    2.8246   -0.1986 C   0  0  0  0  0  0  0  0  0  0  0  0
    1.6452    2.1571   -1.7685 C   0  0  0  0  0  0  0  0  0  0  0  0
   -0.7344    1.4423   -0.0928 C   0  0  0  0  0  0  0  0  0  0  0  0
   -1.3740    3.6893    0.5121 C   0  0  0  0  0  0  0  0  0  0  0  0
    1.2459    0.8227   -1.5376 C   0  0  0  0  0  0  0  0  0  0  0  0
    2.8116    2.4476   -2.5007 C   0  0  0  0  0  0  0  0  0  0  0  0
   -1.7003    0.9378    0.7383 N   0  0  0  0  0  0  0  0  0  0  0  0
    0.0728    0.5152   -0.7983 N   0  0  0  0  0  0  0  0  0  0  0  0
   -2.3848    3.1806    1.3130 C   0  0  0  0  0  0  0  0  0  0  0  0
    2.0913   -0.1848   -2.0548 C   0  0  0  0  0  0  0  0  0  0  0  0
    3.6115    1.4295   -3.0056 C   0  0  0  0  0  0  0  0  0  0  0  0
   -2.5086    1.8116    1.3920 C   0  0  0  0  0  0  0  0  0  0  0  0
   -0.5094   -0.8417   -0.9326 C   0  0  0  0  0  0  0  0  0  0  0  0
    3.2523    0.1113   -2.7792 C   0  0  0  0  0  0  0  0  0  0  0  0
   -0.0250   -1.7815    0.2089 C   0  0  1  0  0  0  0  0  0  0  0  0
   -0.7533   -1.4750    1.5206 N   0  3  0  0  0  0  0  0  0  0  0  0
   -0.1645   -3.2547   -0.1662 C   0  0  0  0  0  0  0  0  0  0  0  0
   -2.1004   -2.1075    1.7031 C   0  0  0  0  0  0  0  0  0  0  0  0
    0.1171   -1.6155    2.7304 C   0  0  0  0  0  0  0  0  0  0  0  0
   -1.2419    4.7102    0.4389 H   0  0  0  0  0  0  0  0  0  0  0  0
    3.0768    3.4313   -2.6651 H   0  0  0  0  0  0  0  0  0  0  0  0
   -3.0216    3.8057    1.8314 H   0  0  0  0  0  0  0  0  0  0  0  0
    1.8442   -1.1736   -1.8928 H   0  0  0  0  0  0  0  0  0  0  0  0
    4.4635    1.6532   -3.5432 H   0  0  0  0  0  0  0  0  0  0  0  0
   -3.2611    1.4262    1.9838 H   0  0  0  0  0  0  0  0  0  0  0  0
   -0.2139   -1.2559   -1.8739 H   0  0  0  0  0  0  0  0  0  0  0  0
   -1.5745   -0.7592   -0.8723 H   0  0  0  0  0  0  0  0  0  0  0  0
    3.8409   -0.6535   -3.1448 H   0  0  0  0  0  0  0  0  0  0  0  0
    1.0177   -1.5905    0.3547 H   0  0  0  0  0  0  0  0  0  0  0  0
   -0.9728   -0.4841    1.4191 H   0  0  0  0  0  0  0  0  0  0  0  0
   -1.1974   -3.4870   -0.3212 H   0  0  0  0  0  0  0  0  0  0  0  0
    0.2230   -3.8624    0.6247 H   0  0  0  0  0  0  0  0  0  0  0  0
    0.3832   -3.4473   -1.0650 H   0  0  0  0  0  0  0  0  0  0  0  0
   -1.9850   -3.1647    1.8208 H   0  0  0  0  0  0  0  0  0  0  0  0
   -2.7072   -1.9083    0.8446 H   0  0  0  0  0  0  0  0  0  0  0  0
   -2.5703   -1.7009    2.5742 H   0  0  0  0  0  0  0  0  0  0  0  0
    0.3696   -2.6458    2.8704 H   0  0  0  0  0  0  0  0  0  0  0  0
   -0.4078   -1.2568    3.5910 H   0  0  0  0  0  0  0  0  0  0  0  0
    1.0116   -1.0443    2.5945 H   0  0  0  0  0  0  0  0  0  0  0  0
  1  2  1  0  0  0  0
  1  3  1  0  0  0  0
  2  4  2  0  0  0  0
  2  5  1  0  0  0  0
  3  6  2  0  0  0  0
  3  7  1  0  0  0  0
  4  8  1  0  0  0  0
  4  9  1  0  0  0  0
  5 10  2  0  0  0  0
  5 21  1  0  0  0  0
  6 11  1  0  0  0  0
  6  9  1  0  0  0  0
  7 12  2  0  0  0  0
  7 22  1  0  0  0  0
  8 13  2  0  0  0  0
  9 14  1  0  0  0  0
 10 13  1  0  0  0  0
 10 23  1  0  0  0  0
 11 15  2  0  0  0  0
 11 24  1  0  0  0  0
 12 15  1  0  0  0  0
 12 25  1  0  0  0  0
 13 26  1  0  0  0  0
 14 16  1  0  0  0  0
 14 27  1  0  0  0  0
 14 28  1  0  0  0  0
 15 29  1  0  0  0  0
 16 17  1  0  0  0  0
 16 18  1  0  0  0  0
 16 30  1  1  0  0  0
 17 19  1  0  0  0  0
 17 20  1  0  0  0  0
 17 31  1  0  0  0  0
 18 32  1  0  0  0  0
 18 33  1  0  0  0  0
 18 34  1  0  0  0  0
 19 35  1  0  0  0  0
 19 36  1  0  0  0  0
 19 37  1  0  0  0  0
 20 38  1  0  0  0  0
 20 39  1  0  0  0  0
 20 40  1  0  0  0  0
M  CHG  1  17   1
M  END
>  <Column 1>
C[C@@H](CN1c2ccccc2Sc2cccnc21)[NH+](C)C ZINC000000000404

>  <Column 2>
Decoy22

>  <MMFF94 Energy>
70.737

$$$$
Decoy23
 OpenBabel07082414533D

 35 36  0  0  1  0  0  0  0  0999 V2000
    0.6308   -3.6082    3.2470 O   0  0  0  0  0  0  0  0  0  0  0  0
   -0.2975   -3.0148    2.7102 C   0  0  0  0  0  0  0  0  0  0  0  0
   -0.1610   -1.6831    2.0025 C   0  0  2  0  0  0  0  0  0  0  0  0
   -1.7124   -3.5352    2.6941 C   0  0  0  0  0  0  0  0  0  0  0  0
   -1.6359   -1.2949    1.8277 C   0  0  0  0  0  0  0  0  0  0  0  0
    0.6111   -1.8843    0.6961 C   0  0  0  0  0  0  0  0  0  0  0  0
   -2.3801   -2.6152    1.6831 C   0  0  0  0  0  0  0  0  0  0  0  0
    0.8064   -0.6028   -0.0732 C   0  0  0  0  0  0  0  0  0  0  0  0
    1.7085    0.3687    0.3771 C   0  0  0  0  0  0  0  0  0  0  0  0
    0.0829   -0.3598   -1.2467 C   0  0  0  0  0  0  0  0  0  0  0  0
    1.8759    1.5638   -0.3284 C   0  0  0  0  0  0  0  0  0  0  0  0
    0.2487    0.8370   -1.9476 C   0  0  0  0  0  0  0  0  0  0  0  0
    1.1470    1.8143   -1.4989 C   0  0  0  0  0  0  0  0  0  0  0  0
    1.3119    3.1364   -2.2316 C   0  0  1  0  0  0  0  0  0  0  0  0
    1.6206    2.9322   -3.7315 C   0  0  0  0  0  0  0  0  0  0  0  0
    0.0897    4.0290   -2.0191 C   0  0  0  0  0  0  0  0  0  0  0  0
    0.6243    2.9030   -4.5129 O   0  0  0  0  0  0  0  0  0  0  0  0
    2.8519    2.8453   -4.0171 O   0  5  0  0  0  0  0  0  0  0  0  0
    0.3908   -0.9178    2.5072 H   0  0  0  0  0  0  0  0  0  0  0  0
   -2.1687   -3.4490    3.6581 H   0  0  0  0  0  0  0  0  0  0  0  0
   -1.7860   -4.5733    2.4453 H   0  0  0  0  0  0  0  0  0  0  0  0
   -1.7646   -0.6935    0.9521 H   0  0  0  0  0  0  0  0  0  0  0  0
   -1.9990   -0.7188    2.6530 H   0  0  0  0  0  0  0  0  0  0  0  0
    0.0689   -2.5722    0.0815 H   0  0  0  0  0  0  0  0  0  0  0  0
    1.5812   -2.2570    0.9506 H   0  0  0  0  0  0  0  0  0  0  0  0
   -3.4184   -2.4920    1.9104 H   0  0  0  0  0  0  0  0  0  0  0  0
   -2.3364   -3.0023    0.6865 H   0  0  0  0  0  0  0  0  0  0  0  0
    2.2542    0.2011    1.2368 H   0  0  0  0  0  0  0  0  0  0  0  0
   -0.5783   -1.0706   -1.5968 H   0  0  0  0  0  0  0  0  0  0  0  0
    2.5443    2.2702    0.0169 H   0  0  0  0  0  0  0  0  0  0  0  0
   -0.2976    1.0036   -2.8072 H   0  0  0  0  0  0  0  0  0  0  0  0
    2.1600    3.6364   -1.8126 H   0  0  0  0  0  0  0  0  0  0  0  0
   -0.7758    3.5523   -2.4297 H   0  0  0  0  0  0  0  0  0  0  0  0
    0.2449    4.9684   -2.5073 H   0  0  0  0  0  0  0  0  0  0  0  0
   -0.0557    4.1912   -0.9715 H   0  0  0  0  0  0  0  0  0  0  0  0
  1  2  2  0  0  0  0
  2  3  1  0  0  0  0
  2  4  1  0  0  0  0
  3  5  1  0  0  0  0
  3  6  1  0  0  0  0
  3 19  1  1  0  0  0
  4  7  1  0  0  0  0
  4 20  1  0  0  0  0
  4 21  1  0  0  0  0
  5  7  1  0  0  0  0
  5 22  1  0  0  0  0
  5 23  1  0  0  0  0
  6  8  1  0  0  0  0
  6 24  1  0  0  0  0
  6 25  1  0  0  0  0
  7 26  1  0  0  0  0
  7 27  1  0  0  0  0
  8  9  2  0  0  0  0
  8 10  1  0  0  0  0
  9 11  1  0  0  0  0
  9 28  1  0  0  0  0
 10 12  2  0  0  0  0
 10 29  1  0  0  0  0
 11 13  2  0  0  0  0
 11 30  1  0  0  0  0
 12 13  1  0  0  0  0
 12 31  1  0  0  0  0
 13 14  1  0  0  0  0
 14 15  1  0  0  0  0
 14 16  1  0  0  0  0
 14 32  1  1  0  0  0
 15 17  2  0  0  0  0
 15 18  1  0  0  0  0
 16 33  1  0  0  0  0
 16 34  1  0  0  0  0
 16 35  1  0  0  0  0
M  CHG  1  18  -1
M  END
>  <Column 1>
C[C@H](C(=O)[O-])c1ccc(C[C@H]2CCCC2=O)cc1 ZINC000000000435

>  <Column 2>
Decoy23

>  <MMFF94 Energy>
59.289

$$$$
Decoy24
 OpenBabel07082414533D

 31 32  0  0  1  0  0  0  0  0999 V2000
    1.5046    3.8088    3.6314 O   0  0  0  0  0  0  0  0  0  0  0  0
    1.2949    2.6133    3.5353 C   0  0  0  0  0  0  0  0  0  0  0  0
    0.1250    2.0509    3.1127 O   0  0  0  0  0  0  0  0  0  0  0  0
    2.1883    1.6315    3.8723 N   0  0  0  0  0  0  0  0  0  0  0  0
    0.3054    0.6199    3.0579 C   0  0  2  0  0  0  0  0  0  0  0  0
    1.5065    0.3859    3.9501 C   0  0  0  0  0  0  0  0  0  0  0  0
    0.5521    0.1821    1.6097 C   0  0  0  0  0  0  0  0  0  0  0  0
   -0.6991    0.2150    0.9156 O   0  0  0  0  0  0  0  0  0  0  0  0
   -0.6972   -0.1737   -0.3961 C   0  0  0  0  0  0  0  0  0  0  0  0
   -1.9539   -0.1585   -1.0073 C   0  0  0  0  0  0  0  0  0  0  0  0
    0.4193   -0.5650   -1.1364 C   0  0  0  0  0  0  0  0  0  0  0  0
   -2.1073   -0.5195   -2.3513 C   0  0  0  0  0  0  0  0  0  0  0  0
    0.2824   -0.9596   -2.4761 C   0  0  0  0  0  0  0  0  0  0  0  0
   -0.9828   -0.9277   -3.0766 C   0  0  0  0  0  0  0  0  0  0  0  0
   -3.4660   -0.5208   -2.9861 C   0  0  0  0  0  0  0  0  0  0  0  0
    1.4892   -1.3526   -3.2771 C   0  0  0  0  0  0  0  0  0  0  0  0
    3.1498    1.7666    4.0349 H   0  0  0  0  0  0  0  0  0  0  0  0
   -0.5434    0.0554    3.3831 H   0  0  0  0  0  0  0  0  0  0  0  0
    1.2071    0.1700    4.9544 H   0  0  0  0  0  0  0  0  0  0  0  0
    2.1050   -0.4497    3.6528 H   0  0  0  0  0  0  0  0  0  0  0  0
    0.9495   -0.8112    1.5939 H   0  0  0  0  0  0  0  0  0  0  0  0
    1.2544    0.8379    1.1389 H   0  0  0  0  0  0  0  0  0  0  0  0
   -2.7818    0.1232   -0.4594 H   0  0  0  0  0  0  0  0  0  0  0  0
    1.3523   -0.5642   -0.6954 H   0  0  0  0  0  0  0  0  0  0  0  0
   -1.0864   -1.2082   -4.0643 H   0  0  0  0  0  0  0  0  0  0  0  0
   -4.1911   -0.1787   -2.2775 H   0  0  0  0  0  0  0  0  0  0  0  0
   -3.7130   -1.5141   -3.2979 H   0  0  0  0  0  0  0  0  0  0  0  0
   -3.4633    0.1295   -3.8358 H   0  0  0  0  0  0  0  0  0  0  0  0
    2.3579   -1.3187   -2.6533 H   0  0  0  0  0  0  0  0  0  0  0  0
    1.6109   -0.6737   -4.0952 H   0  0  0  0  0  0  0  0  0  0  0  0
    1.3593   -2.3456   -3.6539 H   0  0  0  0  0  0  0  0  0  0  0  0
  1  2  2  0  0  0  0
  2  3  1  0  0  0  0
  2  4  1  0  0  0  0
  3  5  1  0  0  0  0
  4  6  1  0  0  0  0
  4 17  1  0  0  0  0
  5  7  1  0  0  0  0
  5  6  1  0  0  0  0
  5 18  1  1  0  0  0
  6 19  1  0  0  0  0
  6 20  1  0  0  0  0
  7  8  1  0  0  0  0
  7 21  1  0  0  0  0
  7 22  1  0  0  0  0
  8  9  1  0  0  0  0
  9 10  2  0  0  0  0
  9 11  1  0  0  0  0
 10 12  1  0  0  0  0
 10 23  1  0  0  0  0
 11 13  2  0  0  0  0
 11 24  1  0  0  0  0
 12 14  2  0  0  0  0
 12 15  1  0  0  0  0
 13 16  1  0  0  0  0
 13 14  1  0  0  0  0
 14 25  1  0  0  0  0
 15 26  1  0  0  0  0
 15 27  1  0  0  0  0
 15 28  1  0  0  0  0
 16 29  1  0  0  0  0
 16 30  1  0  0  0  0
 16 31  1  0  0  0  0
M  END
>  <Column 1>
Cc1cc(C)cc(OC[C@H]2CNC(=O)O2)c1 ZINC000000000471

>  <Column 2>
Decoy24

>  <MMFF94 Energy>
-6.72

$$$$
Decoy25
 OpenBabel07082414533D

 42 43  0  0  1  0  0  0  0  0999 V2000
   -1.8842    3.3215   -3.2316 O   0  0  0  0  0  0  0  0  0  0  0  0
   -2.5950    2.9741   -2.2430 C   0  0  0  0  0  0  0  0  0  0  0  0
   -3.6161    3.5525   -1.7728 O   0  5  0  0  0  0  0  0  0  0  0  0
   -2.1390    1.6761   -1.5037 C   0  0  0  0  0  0  0  0  0  0  0  0
   -0.6849    1.9445   -0.9841 C   0  0  2  0  0  0  0  0  0  0  0  0
   -2.1763    0.5929   -2.5998 C   0  0  0  0  0  0  0  0  0  0  0  0
   -3.1370    1.2871   -0.4035 C   0  0  0  0  0  0  0  0  0  0  0  0
    0.0402    0.6733   -0.5219 C   0  0  0  0  0  0  0  0  0  0  0  0
   -0.6174    3.0716    0.0853 C   0  0  0  0  0  0  0  0  0  0  0  0
   -0.1816    0.0892    0.7346 C   0  0  0  0  0  0  0  0  0  0  0  0
    0.9638    0.0634   -1.3819 C   0  0  0  0  0  0  0  0  0  0  0  0
    0.8079    3.5320    0.3797 C   0  0  0  0  0  0  0  0  0  0  0  0
    0.4996   -1.0741    1.1356 C   0  0  0  0  0  0  0  0  0  0  0  0
    1.6482   -1.0927   -0.9990 C   0  0  0  0  0  0  0  0  0  0  0  0
    1.4280   -1.6740    0.2581 C   0  0  0  0  0  0  0  0  0  0  0  0
    0.2758   -1.6549    2.3919 C   0  0  0  0  0  0  0  0  0  0  0  0
    2.1099   -2.8393    0.6582 C   0  0  0  0  0  0  0  0  0  0  0  0
    0.9609   -2.8103    2.7740 C   0  0  0  0  0  0  0  0  0  0  0  0
    1.8794   -3.4090    1.9123 C   0  0  0  0  0  0  0  0  0  0  0  0
    2.4799   -4.5344    2.4090 O   0  0  0  0  0  0  0  0  0  0  0  0
    3.4074   -5.1934    1.5569 C   0  0  0  0  0  0  0  0  0  0  0  0
   -0.1493    2.3018   -1.8387 H   0  0  0  0  0  0  0  0  0  0  0  0
   -1.4858    0.8475   -3.3765 H   0  0  0  0  0  0  0  0  0  0  0  0
   -3.1640    0.5311   -3.0068 H   0  0  0  0  0  0  0  0  0  0  0  0
   -1.9050   -0.3519   -2.1770 H   0  0  0  0  0  0  0  0  0  0  0  0
   -3.1249    2.0289    0.3675 H   0  0  0  0  0  0  0  0  0  0  0  0
   -2.8613    0.3392    0.0092 H   0  0  0  0  0  0  0  0  0  0  0  0
   -4.1202    1.2222   -0.8206 H   0  0  0  0  0  0  0  0  0  0  0  0
   -1.0519    2.7069    0.9926 H   0  0  0  0  0  0  0  0  0  0  0  0
   -1.1510    3.9135   -0.3038 H   0  0  0  0  0  0  0  0  0  0  0  0
   -0.8604    0.5233    1.3794 H   0  0  0  0  0  0  0  0  0  0  0  0
    1.1409    0.4745   -2.3118 H   0  0  0  0  0  0  0  0  0  0  0  0
    1.3735    2.7128    0.7720 H   0  0  0  0  0  0  0  0  0  0  0  0
    0.7854    4.3257    1.0969 H   0  0  0  0  0  0  0  0  0  0  0  0
    1.2640    3.8802   -0.5234 H   0  0  0  0  0  0  0  0  0  0  0  0
    2.3238   -1.5241   -1.6489 H   0  0  0  0  0  0  0  0  0  0  0  0
   -0.4017   -1.2245    3.0405 H   0  0  0  0  0  0  0  0  0  0  0  0
    2.7887   -3.2780    0.0165 H   0  0  0  0  0  0  0  0  0  0  0  0
    0.7858   -3.2249    3.7027 H   0  0  0  0  0  0  0  0  0  0  0  0
    3.8041   -6.0518    2.0576 H   0  0  0  0  0  0  0  0  0  0  0  0
    4.2048   -4.5234    1.3117 H   0  0  0  0  0  0  0  0  0  0  0  0
    2.9115   -5.5011    0.6601 H   0  0  0  0  0  0  0  0  0  0  0  0
  1  2  2  0  0  0  0
  2  3  1  0  0  0  0
  2  4  1  0  0  0  0
  4  5  1  0  0  0  0
  4  6  1  0  0  0  0
  4  7  1  0  0  0  0
  5  8  1  0  0  0  0
  5  9  1  0  0  0  0
  5 22  1  6  0  0  0
  6 23  1  0  0  0  0
  6 24  1  0  0  0  0
  6 25  1  0  0  0  0
  7 26  1  0  0  0  0
  7 27  1  0  0  0  0
  7 28  1  0  0  0  0
  8 10  2  0  0  0  0
  8 11  1  0  0  0  0
  9 12  1  0  0  0  0
  9 29  1  0  0  0  0
  9 30  1  0  0  0  0
 10 13  1  0  0  0  0
 10 31  1  0  0  0  0
 11 14  2  0  0  0  0
 11 32  1  0  0  0  0
 12 33  1  0  0  0  0
 12 34  1  0  0  0  0
 12 35  1  0  0  0  0
 13 15  1  0  0  0  0
 13 16  2  0  0  0  0
 14 15  1  0  0  0  0
 14 36  1  0  0  0  0
 15 17  2  0  0  0  0
 16 18  1  0  0  0  0
 16 37  1  0  0  0  0
 17 19  1  0  0  0  0
 17 38  1  0  0  0  0
 18 19  2  0  0  0  0
 18 39  1  0  0  0  0
 19 20  1  0  0  0  0
 20 21  1  0  0  0  0
 21 40  1  0  0  0  0
 21 41  1  0  0  0  0
 21 42  1  0  0  0  0
M  CHG  1   3  -1
M  END
>  <Column 1>
CC[C@@H](c1ccc2cc(OC)ccc2c1)C(C)(C)C(=O)[O-] ZINC000000000478

>  <Column 2>
Decoy25

>  <MMFF94 Energy>
55.95

$$$$
Decoy26
 OpenBabel07082414533D

 31 32  0  0  0  0  0  0  0  0999 V2000
    1.6648   -1.7525    1.7525 O   0  0  0  0  0  0  0  0  0  0  0  0
    0.9969   -0.9450    1.0974 C   0  0  0  0  0  0  0  0  0  0  0  0
   -0.3269   -1.3786    0.5527 C   0  0  0  0  0  0  0  0  0  0  0  0
    1.6083    0.3759    0.7686 C   0  0  0  0  0  0  0  0  0  0  0  0
   -1.5067   -0.5891    0.6389 C   0  0  0  0  0  0  0  0  0  0  0  0
   -0.3235   -2.6571   -0.0428 C   0  0  0  0  0  0  0  0  0  0  0  0
    1.2299    1.1225   -0.3511 C   0  0  0  0  0  0  0  0  0  0  0  0
    2.6658    0.8364    1.5650 C   0  0  0  0  0  0  0  0  0  0  0  0
   -1.5942    0.5541    1.2036 O   0  5  0  0  0  0  0  0  0  0  0  0
   -2.6510   -1.1811    0.0465 C   0  0  0  0  0  0  0  0  0  0  0  0
   -1.4822   -3.1823   -0.6033 C   0  0  0  0  0  0  0  0  0  0  0  0
    1.8787    2.3247   -0.6531 C   0  0  0  0  0  0  0  0  0  0  0  0
    3.3171    2.0357    1.2614 C   0  0  0  0  0  0  0  0  0  0  0  0
   -2.6573   -2.4444   -0.5659 C   0  0  0  0  0  0  0  0  0  0  0  0
    2.9186    2.7966    0.1568 C   0  0  0  0  0  0  0  0  0  0  0  0
   -3.7386   -3.0532   -1.1489 O   0  0  0  0  0  0  0  0  0  0  0  0
    3.6252    4.0734   -0.1835 C   0  0  0  0  0  0  0  0  0  0  0  0
   -4.9648   -2.3368   -1.0844 C   0  0  0  0  0  0  0  0  0  0  0  0
    0.5485   -3.2086   -0.0627 H   0  0  0  0  0  0  0  0  0  0  0  0
    0.4672    0.7847   -0.9587 H   0  0  0  0  0  0  0  0  0  0  0  0
    2.9667    0.2847    2.3836 H   0  0  0  0  0  0  0  0  0  0  0  0
   -3.5353   -0.6495    0.0668 H   0  0  0  0  0  0  0  0  0  0  0  0
   -1.4688   -4.1151   -1.0445 H   0  0  0  0  0  0  0  0  0  0  0  0
    1.5880    2.8687   -1.4805 H   0  0  0  0  0  0  0  0  0  0  0  0
    4.0958    2.3615    1.8551 H   0  0  0  0  0  0  0  0  0  0  0  0
    3.1790    4.5069   -1.0540 H   0  0  0  0  0  0  0  0  0  0  0  0
    4.6577    3.8692   -0.3761 H   0  0  0  0  0  0  0  0  0  0  0  0
    3.5435    4.7558    0.6366 H   0  0  0  0  0  0  0  0  0  0  0  0
   -5.7341   -2.9023   -1.5674 H   0  0  0  0  0  0  0  0  0  0  0  0
   -4.8530   -1.3934   -1.5767 H   0  0  0  0  0  0  0  0  0  0  0  0
   -5.2302   -2.1755   -0.0605 H   0  0  0  0  0  0  0  0  0  0  0  0
  1  2  2  0  0  0  0
  2  3  1  0  0  0  0
  2  4  1  0  0  0  0
  3  5  2  0  0  0  0
  3  6  1  0  0  0  0
  4  7  2  0  0  0  0
  4  8  1  0  0  0  0
  5  9  1  0  0  0  0
  5 10  1  0  0  0  0
  6 11  2  0  0  0  0
  6 19  1  0  0  0  0
  7 12  1  0  0  0  0
  7 20  1  0  0  0  0
  8 13  2  0  0  0  0
  8 21  1  0  0  0  0
 10 14  2  0  0  0  0
 10 22  1  0  0  0  0
 11 14  1  0  0  0  0
 11 23  1  0  0  0  0
 12 15  2  0  0  0  0
 12 24  1  0  0  0  0
 13 15  1  0  0  0  0
 13 25  1  0  0  0  0
 14 16  1  0  0  0  0
 15 17  1  0  0  0  0
 16 18  1  0  0  0  0
 17 26  1  0  0  0  0
 17 27  1  0  0  0  0
 17 28  1  0  0  0  0
 18 29  1  0  0  0  0
 18 30  1  0  0  0  0
 18 31  1  0  0  0  0
M  CHG  1   9  -1
M  END
>  <Column 1>
COc1ccc(C(=O)c2ccc(C)cc2)c([O-])c1 ZINC000000000500

>  <Column 2>
Decoy26

>  <MMFF94 Energy>
85.427

$$$$
Decoy27
 OpenBabel07082414533D

 33 35  0  0  1  0  0  0  0  0999 V2000
    0.2624    0.6999    5.6090 O   0  0  0  0  0  0  0  0  0  0  0  0
    0.8052    1.5684    4.8637 C   0  0  0  0  0  0  0  0  0  0  0  0
    0.6392    2.8244    4.8648 O   0  5  0  0  0  0  0  0  0  0  0  0
    1.8320    1.0459    3.8338 C   0  0  2  0  0  0  0  0  0  0  0  0
    1.1833    0.7211    2.4976 C   0  0  0  0  0  0  0  0  0  0  0  0
    2.6068   -0.1588    4.3661 C   0  0  0  0  0  0  0  0  0  0  0  0
    1.7189    1.2380    1.3108 C   0  0  0  0  0  0  0  0  0  0  0  0
    0.0696   -0.1240    2.4122 C   0  0  0  0  0  0  0  0  0  0  0  0
    1.1493    0.9223    0.0718 C   0  0  0  0  0  0  0  0  0  0  0  0
   -0.5030   -0.4357    1.1740 C   0  0  0  0  0  0  0  0  0  0  0  0
    0.0288    0.0858   -0.0125 C   0  0  0  0  0  0  0  0  0  0  0  0
   -0.5478   -0.2153   -1.3158 C   0  0  0  0  0  0  0  0  0  0  0  0
    0.0766    0.0865   -2.5115 N   0  0  0  0  0  0  0  0  0  0  0  0
   -1.7697   -0.8143   -1.5496 C   0  0  0  0  0  0  0  0  0  0  0  0
   -0.7459   -0.3216   -3.4531 C   0  0  0  0  0  0  0  0  0  0  0  0
   -1.8964   -0.8817   -2.9121 N   0  0  0  0  0  0  0  0  0  0  0  0
   -0.6500   -0.2804   -4.8732 C   0  0  0  0  0  0  0  0  0  0  0  0
   -2.9394   -1.3933   -3.6817 C   0  0  0  0  0  0  0  0  0  0  0  0
   -1.6534   -0.7734   -5.6262 C   0  0  0  0  0  0  0  0  0  0  0  0
   -2.8449   -1.3524   -5.0218 C   0  0  0  0  0  0  0  0  0  0  0  0
    2.5305    1.8399    3.6712 H   0  0  0  0  0  0  0  0  0  0  0  0
    1.9307   -0.9701    4.5381 H   0  0  0  0  0  0  0  0  0  0  0  0
    3.0889    0.1046    5.2843 H   0  0  0  0  0  0  0  0  0  0  0  0
    3.3434   -0.4545    3.6486 H   0  0  0  0  0  0  0  0  0  0  0  0
    2.5426    1.8585    1.3505 H   0  0  0  0  0  0  0  0  0  0  0  0
   -0.3343   -0.5223    3.2743 H   0  0  0  0  0  0  0  0  0  0  0  0
    1.5604    1.3111   -0.7913 H   0  0  0  0  0  0  0  0  0  0  0  0
   -1.3263   -1.0567    1.1344 H   0  0  0  0  0  0  0  0  0  0  0  0
   -2.4473   -1.1432   -0.8441 H   0  0  0  0  0  0  0  0  0  0  0  0
    0.1848    0.1255   -5.3243 H   0  0  0  0  0  0  0  0  0  0  0  0
   -3.7735   -1.7983   -3.2286 H   0  0  0  0  0  0  0  0  0  0  0  0
   -1.5754   -0.7397   -6.6547 H   0  0  0  0  0  0  0  0  0  0  0  0
   -3.6044   -1.7253   -5.6127 H   0  0  0  0  0  0  0  0  0  0  0  0
  1  2  2  0  0  0  0
  2  3  1  0  0  0  0
  2  4  1  0  0  0  0
  4  5  1  0  0  0  0
  4  6  1  0  0  0  0
  4 21  1  6  0  0  0
  5  7  2  0  0  0  0
  5  8  1  0  0  0  0
  6 22  1  0  0  0  0
  6 23  1  0  0  0  0
  6 24  1  0  0  0  0
  7  9  1  0  0  0  0
  7 25  1  0  0  0  0
  8 10  2  0  0  0  0
  8 26  1  0  0  0  0
  9 11  2  0  0  0  0
  9 27  1  0  0  0  0
 10 11  1  0  0  0  0
 10 28  1  0  0  0  0
 11 12  1  0  0  0  0
 12 13  1  0  0  0  0
 12 14  2  0  0  0  0
 13 15  2  0  0  0  0
 14 16  1  0  0  0  0
 14 29  1  0  0  0  0
 15 17  1  0  0  0  0
 15 16  1  0  0  0  0
 16 18  1  0  0  0  0
 17 19  2  0  0  0  0
 17 30  1  0  0  0  0
 18 20  2  0  0  0  0
 18 31  1  0  0  0  0
 19 20  1  0  0  0  0
 19 32  1  0  0  0  0
 20 33  1  0  0  0  0
M  CHG  1   3  -1
M  END
>  <Column 1>
C[C@H](C(=O)[O-])c1ccc(-c2cn3ccccc3n2)cc1 ZINC000000000508

>  <Column 2>
Decoy27

>  <MMFF94 Energy>
76.553

$$$$
Decoy28
 OpenBabel07082414533D

 30 31  0  0  1  0  0  0  0  0999 V2000
   -1.9576   -1.2454    3.9179 S   0  0  0  0  0  0  0  0  0  0  0  0
   -2.7177   -2.1154    2.4985 C   0  0  0  0  0  0  0  0  0  0  0  0
   -0.6163   -2.4004    4.2980 C   0  0  0  0  0  0  0  0  0  0  0  0
   -2.4654   -1.4833    1.1285 C   0  0  1  0  0  0  0  0  0  0  0  0
   -3.0466   -0.1699    1.0399 O   0  0  0  0  0  0  0  0  0  0  0  0
   -1.0231   -1.2928    0.7196 C   0  0  0  0  0  0  0  0  0  0  0  0
   -2.2503    0.5879    0.2173 C   0  0  0  0  0  0  0  0  0  0  0  0
   -1.1118   -0.1409   -0.1222 N   0  0  0  0  0  0  0  0  0  0  0  0
   -2.5489    1.7212   -0.1273 O   0  0  0  0  0  0  0  0  0  0  0  0
    0.0189    0.3149   -0.7462 N   0  0  0  0  0  0  0  0  0  0  0  0
   -0.0753    1.3277   -1.5467 C   0  0  0  0  0  0  0  0  0  0  0  0
    1.0936    1.8642   -2.1952 C   0  0  0  0  0  0  0  0  0  0  0  0
    2.3135    1.2765   -1.9782 O   0  0  0  0  0  0  0  0  0  0  0  0
    1.2410    2.9363   -3.0598 C   0  0  0  0  0  0  0  0  0  0  0  0
    3.2160    1.9846   -2.7053 C   0  0  0  0  0  0  0  0  0  0  0  0
    2.6187    3.0154   -3.3902 C   0  0  0  0  0  0  0  0  0  0  0  0
    4.5759    1.5516   -2.6367 N   0  3  0  0  0  0  0  0  0  0  0  0
    5.3911    2.2089   -3.2988 O   0  0  0  0  0  0  0  0  0  0  0  0
    4.8392    0.5663   -1.9364 O   0  5  0  0  0  0  0  0  0  0  0  0
   -3.7753   -2.1457    2.6581 H   0  0  0  0  0  0  0  0  0  0  0  0
   -2.2592   -3.0817    2.4658 H   0  0  0  0  0  0  0  0  0  0  0  0
   -0.0539   -2.0323    5.1305 H   0  0  0  0  0  0  0  0  0  0  0  0
    0.0258   -2.4938    3.4472 H   0  0  0  0  0  0  0  0  0  0  0  0
   -1.0280   -3.3577    4.5409 H   0  0  0  0  0  0  0  0  0  0  0  0
   -2.9109   -2.2062    0.4775 H   0  0  0  0  0  0  0  0  0  0  0  0
   -0.6544   -2.1415    0.1822 H   0  0  0  0  0  0  0  0  0  0  0  0
   -0.3490   -1.1791    1.5428 H   0  0  0  0  0  0  0  0  0  0  0  0
   -0.9979    1.7555   -1.7222 H   0  0  0  0  0  0  0  0  0  0  0  0
    0.4914    3.5591   -3.3991 H   0  0  0  0  0  0  0  0  0  0  0  0
    3.0749    3.7009   -4.0123 H   0  0  0  0  0  0  0  0  0  0  0  0
  1  2  1  0  0  0  0
  1  3  1  0  0  0  0
  2  4  1  0  0  0  0
  2 20  1  0  0  0  0
  2 21  1  0  0  0  0
  3 22  1  0  0  0  0
  3 23  1  0  0  0  0
  3 24  1  0  0  0  0
  4  5  1  0  0  0  0
  4  6  1  0  0  0  0
  4 25  1  6  0  0  0
  5  7  1  0  0  0  0
  6  8  1  0  0  0  0
  6 26  1  0  0  0  0
  6 27  1  0  0  0  0
  7  9  2  0  0  0  0
  7  8  1  0  0  0  0
  8 10  1  0  0  0  0
 10 11  2  0  0  0  0
 11 12  1  0  0  0  0
 11 28  1  0  0  0  0
 12 13  1  0  0  0  0
 12 14  2  0  0  0  0
 13 15  1  0  0  0  0
 14 16  1  0  0  0  0
 14 29  1  0  0  0  0
 15 17  1  0  0  0  0
 15 16  2  0  0  0  0
 16 30  1  0  0  0  0
 17 18  2  0  0  0  0
 17 19  1  0  0  0  0
M  CHG  2  17   1  19  -1
M  END
>  <Column 1>
CSC[C@@H]1CN(/N=C/c2ccc([N+](=O)[O-])o2)C(=O)O1 ZINC000000000540

>  <Column 2>
Decoy28

>  <MMFF94 Energy>
105.08

$$$$
Decoy29
 OpenBabel07082414533D

 39 41  0  0  0  0  0  0  0  0999 V2000
   -2.4436    0.6977    2.5309 O   0  0  0  0  0  0  0  0  0  0  0  0
   -2.0818    0.4627    1.3778 C   0  0  0  0  0  0  0  0  0  0  0  0
   -0.7102    0.1906    1.1289 N   0  0  0  0  0  0  0  0  0  0  0  0
   -3.1447    0.4324    0.3569 C   0  0  0  0  0  0  0  0  0  0  0  0
   -0.0492    0.3467   -0.0960 C   0  0  0  0  0  0  0  0  0  0  0  0
    0.2091   -0.3011    2.0582 C   0  0  0  0  0  0  0  0  0  0  0  0
   -4.1495    1.3891    0.3893 C   0  0  0  0  0  0  0  0  0  0  0  0
   -3.2185   -0.5752   -0.6070 C   0  0  0  0  0  0  0  0  0  0  0  0
    1.2176   -0.2240    0.0353 C   0  0  0  0  0  0  0  0  0  0  0  0
   -0.4359    0.9612   -1.3050 C   0  0  0  0  0  0  0  0  0  0  0  0
    1.3707   -0.6567    1.3854 C   0  0  0  0  0  0  0  0  0  0  0  0
   -0.1056   -0.4439    3.5109 C   0  0  0  0  0  0  0  0  0  0  0  0
   -5.1757    1.4299   -0.4973 N   0  0  0  0  0  0  0  0  0  0  0  0
   -4.2646   -0.5582   -1.5262 C   0  0  0  0  0  0  0  0  0  0  0  0
    2.0856   -0.2466   -1.0815 C   0  0  0  0  0  0  0  0  0  0  0  0
    0.4477    0.9310   -2.3906 C   0  0  0  0  0  0  0  0  0  0  0  0
    2.5806   -1.3523    1.9444 C   0  0  0  0  0  0  0  0  0  0  0  0
   -5.2061    0.4563   -1.4347 C   0  0  0  0  0  0  0  0  0  0  0  0
    1.7004    0.3371   -2.2890 C   0  0  0  0  0  0  0  0  0  0  0  0
    3.8101   -0.4440    2.0384 C   0  0  0  0  0  0  0  0  0  0  0  0
    2.4656    0.3957   -3.4245 O   0  0  0  0  0  0  0  0  0  0  0  0
    3.8939    0.2599    3.0864 O   0  0  0  0  0  0  0  0  0  0  0  0
    4.6339   -0.5479    1.0798 O   0  5  0  0  0  0  0  0  0  0  0  0
    3.8404    0.0568   -3.2583 C   0  0  0  0  0  0  0  0  0  0  0  0
   -4.1142    2.1088    1.1281 H   0  0  0  0  0  0  0  0  0  0  0  0
   -2.5074   -1.3225   -0.6378 H   0  0  0  0  0  0  0  0  0  0  0  0
   -1.3541    1.4250   -1.3881 H   0  0  0  0  0  0  0  0  0  0  0  0
   -1.0903   -0.0709    3.7009 H   0  0  0  0  0  0  0  0  0  0  0  0
    0.6040    0.1134    4.0860 H   0  0  0  0  0  0  0  0  0  0  0  0
   -0.0560   -1.4765    3.7868 H   0  0  0  0  0  0  0  0  0  0  0  0
   -4.3375   -1.2827   -2.2575 H   0  0  0  0  0  0  0  0  0  0  0  0
    3.0103   -0.6980   -1.0026 H   0  0  0  0  0  0  0  0  0  0  0  0
    0.1629    1.3589   -3.2855 H   0  0  0  0  0  0  0  0  0  0  0  0
    2.8184   -2.1818    1.3117 H   0  0  0  0  0  0  0  0  0  0  0  0
    2.3376   -1.6618    2.9394 H   0  0  0  0  0  0  0  0  0  0  0  0
   -5.9751    0.4686   -2.1228 H   0  0  0  0  0  0  0  0  0  0  0  0
    4.3432    0.1346   -4.1996 H   0  0  0  0  0  0  0  0  0  0  0  0
    3.9190   -0.9461   -2.8938 H   0  0  0  0  0  0  0  0  0  0  0  0
    4.2908    0.7276   -2.5568 H   0  0  0  0  0  0  0  0  0  0  0  0
  1  2  2  0  0  0  0
  2  3  1  0  0  0  0
  2  4  1  0  0  0  0
  3  5  1  0  0  0  0
  3  6  1  0  0  0  0
  4  7  2  0  0  0  0
  4  8  1  0  0  0  0
  5  9  2  0  0  0  0
  5 10  1  0  0  0  0
  6 11  2  0  0  0  0
  6 12  1  0  0  0  0
  7 13  1  0  0  0  0
  7 25  1  0  0  0  0
  8 14  2  0  0  0  0
  8 26  1  0  0  0  0
  9 15  1  0  0  0  0
  9 11  1  0  0  0  0
 10 16  2  0  0  0  0
 10 27  1  0  0  0  0
 11 17  1  0  0  0  0
 12 28  1  0  0  0  0
 12 29  1  0  0  0  0
 12 30  1  0  0  0  0
 13 18  2  0  0  0  0
 14 18  1  0  0  0  0
 14 31  1  0  0  0  0
 15 19  2  0  0  0  0
 15 32  1  0  0  0  0
 16 19  1  0  0  0  0
 16 33  1  0  0  0  0
 17 20  1  0  0  0  0
 17 34  1  0  0  0  0
 17 35  1  0  0  0  0
 18 36  1  0  0  0  0
 19 21  1  0  0  0  0
 20 22  2  0  0  0  0
 20 23  1  0  0  0  0
 21 24  1  0  0  0  0
 24 37  1  0  0  0  0
 24 38  1  0  0  0  0
 24 39  1  0  0  0  0
M  CHG  1  23  -1
M  END
>  <Column 1>
COc1ccc2c(c1)c(CC(=O)[O-])c(C)n2C(=O)c1cccnc1 ZINC000000000544

>  <Column 2>
Decoy29

>  <MMFF94 Energy>
123.03

$$$$
Decoy30
 OpenBabel07082414533D

 39 41  0  0  1  0  0  0  0  0999 V2000
    1.3502   -0.4499   -0.1800 S   0  0  2  0  0  0  0  0  0  0  0  0
    1.8254   -1.3423   -1.2922 O   0  0  0  0  0  0  0  0  0  0  0  0
    1.7605   -1.3365    1.3321 C   0  0  0  0  0  0  0  0  0  0  0  0
   -0.4557   -0.5896   -0.0082 C   0  0  0  0  0  0  0  0  0  0  0  0
    1.3264   -1.0242    2.5333 N   0  0  0  0  0  0  0  0  0  0  0  0
    2.5796   -2.4315    1.3537 N   0  0  0  0  0  0  0  0  0  0  0  0
   -1.1913    0.1880   -1.0712 C   0  0  0  0  0  0  0  0  0  0  0  0
    1.8902   -1.9617    3.3665 C   0  0  0  0  0  0  0  0  0  0  0  0
    2.6804   -2.8579    2.6514 C   0  0  0  0  0  0  0  0  0  0  0  0
   -1.7971   -0.5739   -2.0203 N   0  0  0  0  0  0  0  0  0  0  0  0
   -1.2617    1.5891   -1.0804 C   0  0  0  0  0  0  0  0  0  0  0  0
    1.7706   -2.1132    4.7554 C   0  0  0  0  0  0  0  0  0  0  0  0
    3.3702   -3.9163    3.2451 C   0  0  0  0  0  0  0  0  0  0  0  0
   -2.4767    0.0487   -3.0064 C   0  0  0  0  0  0  0  0  0  0  0  0
   -1.9275    2.1883   -2.1636 C   0  0  0  0  0  0  0  0  0  0  0  0
   -0.6248    2.4357   -0.0141 C   0  0  0  0  0  0  0  0  0  0  0  0
    2.4531   -3.1668    5.3774 C   0  0  0  0  0  0  0  0  0  0  0  0
    3.2379   -4.0509    4.6323 C   0  0  0  0  0  0  0  0  0  0  0  0
   -2.5923    1.4224   -3.1234 C   0  0  0  0  0  0  0  0  0  0  0  0
   -1.9944    3.5590   -2.2464 O   0  0  0  0  0  0  0  0  0  0  0  0
   -3.3587    2.0271   -4.2569 C   0  0  0  0  0  0  0  0  0  0  0  0
   -0.8854    4.0642   -2.9939 C   0  0  0  0  0  0  0  0  0  0  0  0
   -0.7405   -0.2142    0.9525 H   0  0  0  0  0  0  0  0  0  0  0  0
   -0.7170   -1.6216   -0.1162 H   0  0  0  0  0  0  0  0  0  0  0  0
    3.0193   -2.8411    0.5739 H   0  0  0  0  0  0  0  0  0  0  0  0
    1.1916   -1.4618    5.3082 H   0  0  0  0  0  0  0  0  0  0  0  0
    3.9482   -4.5664    2.6898 H   0  0  0  0  0  0  0  0  0  0  0  0
   -2.9397   -0.5374   -3.7186 H   0  0  0  0  0  0  0  0  0  0  0  0
   -0.1708    1.8031    0.7198 H   0  0  0  0  0  0  0  0  0  0  0  0
   -1.3717    3.0437    0.4521 H   0  0  0  0  0  0  0  0  0  0  0  0
    0.1215    3.0630   -0.4551 H   0  0  0  0  0  0  0  0  0  0  0  0
    2.3753   -3.2916    6.3989 H   0  0  0  0  0  0  0  0  0  0  0  0
    3.7302   -4.8190    5.1146 H   0  0  0  0  0  0  0  0  0  0  0  0
   -3.7792    1.2486   -4.8586 H   0  0  0  0  0  0  0  0  0  0  0  0
   -2.7011    2.6237   -4.8540 H   0  0  0  0  0  0  0  0  0  0  0  0
   -4.1440    2.6415   -3.8688 H   0  0  0  0  0  0  0  0  0  0  0  0
   -0.9497    5.1308   -3.0506 H   0  0  0  0  0  0  0  0  0  0  0  0
   -0.9038    3.6528   -3.9815 H   0  0  0  0  0  0  0  0  0  0  0  0
    0.0274    3.7872   -2.5091 H   0  0  0  0  0  0  0  0  0  0  0  0
  1  2  2  6  0  0  0
  1  3  1  0  0  0  0
  1  4  1  0  0  0  0
  3  5  2  0  0  0  0
  3  6  1  0  0  0  0
  4  7  1  0  0  0  0
  4 23  1  0  0  0  0
  4 24  1  0  0  0  0
  5  8  1  0  0  0  0
  6  9  1  0  0  0  0
  6 25  1  0  0  0  0
  7 10  2  0  0  0  0
  7 11  1  0  0  0  0
  8 12  1  0  0  0  0
  8  9  2  0  0  0  0
  9 13  1  0  0  0  0
 10 14  1  0  0  0  0
 11 15  2  0  0  0  0
 11 16  1  0  0  0  0
 12 17  2  0  0  0  0
 12 26  1  0  0  0  0
 13 18  2  0  0  0  0
 13 27  1  0  0  0  0
 14 19  2  0  0  0  0
 14 28  1  0  0  0  0
 15 20  1  0  0  0  0
 15 19  1  0  0  0  0
 16 29  1  0  0  0  0
 16 30  1  0  0  0  0
 16 31  1  0  0  0  0
 17 18  1  0  0  0  0
 17 32  1  0  0  0  0
 18 33  1  0  0  0  0
 19 21  1  0  0  0  0
 20 22  1  0  0  0  0
 21 34  1  0  0  0  0
 21 35  1  0  0  0  0
 21 36  1  0  0  0  0
 22 37  1  0  0  0  0
 22 38  1  0  0  0  0
 22 39  1  0  0  0  0
M  END
>  <Column 1>
COc1c(C)cnc(C[S@@](=O)c2nc3ccccc3[nH]2)c1C ZINC000000000561

>  <Column 2>
Decoy30

>  <MMFF94 Energy>
44.405

$$$$
Decoy31
 OpenBabel07082414533D

 39 40  0  0  0  0  0  0  0  0999 V2000
    2.5433   -2.6311    0.1753 O   0  0  0  0  0  0  0  0  0  0  0  0
    1.6797   -1.7231    0.7263 C   0  0  0  0  0  0  0  0  0  0  0  0
    2.3681   -3.9074    0.7999 C   0  0  0  0  0  0  0  0  0  0  0  0
    1.9732   -1.0097    1.8875 C   0  0  0  0  0  0  0  0  0  0  0  0
    0.4772   -1.5022    0.0493 C   0  0  0  0  0  0  0  0  0  0  0  0
    3.1196   -1.1037    2.6269 O   0  0  0  0  0  0  0  0  0  0  0  0
    1.0092   -0.1422    2.4102 C   0  0  0  0  0  0  0  0  0  0  0  0
   -0.4805   -0.6009    0.5492 C   0  0  0  0  0  0  0  0  0  0  0  0
    4.3261   -1.1853    1.8726 C   0  0  0  0  0  0  0  0  0  0  0  0
   -0.2147    0.0811    1.7547 C   0  0  0  0  0  0  0  0  0  0  0  0
   -1.7436   -0.3666   -0.2563 C   0  0  0  0  0  0  0  0  0  0  0  0
   -1.2089    1.0209    2.3829 C   0  0  0  0  0  0  0  0  0  0  0  0
   -1.6965    0.8064   -1.2128 C   0  0  0  0  0  0  0  0  0  0  0  0
   -2.8386    1.2293   -1.8897 C   0  0  0  0  0  0  0  0  0  0  0  0
   -0.5185    1.4886   -1.5104 C   0  0  0  0  0  0  0  0  0  0  0  0
   -2.8276    2.2311   -2.7846 N   0  0  0  0  0  0  0  0  0  0  0  0
   -4.0568    0.5876   -1.7369 N   0  0  0  0  0  0  0  0  0  0  0  0
   -0.5266    2.4844   -2.4010 N   0  3  0  0  0  0  0  0  0  0  0  0
   -1.6534    2.8291   -3.0157 C   0  0  0  0  0  0  0  0  0  0  0  0
   -1.6174    3.8717   -3.9192 N   0  0  0  0  0  0  0  0  0  0  0  0
    3.0452   -4.6130    0.3656 H   0  0  0  0  0  0  0  0  0  0  0  0
    1.3622   -4.2414    0.6529 H   0  0  0  0  0  0  0  0  0  0  0  0
    2.5659   -3.8217    1.8480 H   0  0  0  0  0  0  0  0  0  0  0  0
    0.2889   -2.0078   -0.8305 H   0  0  0  0  0  0  0  0  0  0  0  0
    1.2006    0.3462    3.2989 H   0  0  0  0  0  0  0  0  0  0  0  0
    5.1598   -1.2551    2.5397 H   0  0  0  0  0  0  0  0  0  0  0  0
    4.4272   -0.3099    1.2658 H   0  0  0  0  0  0  0  0  0  0  0  0
    4.2971   -2.0522    1.2461 H   0  0  0  0  0  0  0  0  0  0  0  0
   -2.5469   -0.2002    0.4306 H   0  0  0  0  0  0  0  0  0  0  0  0
   -1.8709   -1.2377   -0.8645 H   0  0  0  0  0  0  0  0  0  0  0  0
   -0.7986    1.4227    3.2857 H   0  0  0  0  0  0  0  0  0  0  0  0
   -2.1102    0.4893    2.6063 H   0  0  0  0  0  0  0  0  0  0  0  0
   -1.4244    1.8186    1.7031 H   0  0  0  0  0  0  0  0  0  0  0  0
    0.3621    1.2241   -1.0418 H   0  0  0  0  0  0  0  0  0  0  0  0
   -4.1442   -0.1572   -1.0991 H   0  0  0  0  0  0  0  0  0  0  0  0
   -4.8351    0.8764   -2.2661 H   0  0  0  0  0  0  0  0  0  0  0  0
    0.3078    2.9662   -2.6033 H   0  0  0  0  0  0  0  0  0  0  0  0
   -2.4389    4.1459   -4.3874 H   0  0  0  0  0  0  0  0  0  0  0  0
   -0.7702    4.3412   -4.0955 H   0  0  0  0  0  0  0  0  0  0  0  0
  1  2  1  0  0  0  0
  1  3  1  0  0  0  0
  2  4  2  0  0  0  0
  2  5  1  0  0  0  0
  3 21  1  0  0  0  0
  3 22  1  0  0  0  0
  3 23  1  0  0  0  0
  4  6  1  0  0  0  0
  4  7  1  0  0  0  0
  5  8  2  0  0  0  0
  5 24  1  0  0  0  0
  6  9  1  0  0  0  0
  7 10  2  0  0  0  0
  7 25  1  0  0  0  0
  8 11  1  0  0  0  0
  8 10  1  0  0  0  0
  9 26  1  0  0  0  0
  9 27  1  0  0  0  0
  9 28  1  0  0  0  0
 10 12  1  0  0  0  0
 11 13  1  0  0  0  0
 11 29  1  0  0  0  0
 11 30  1  0  0  0  0
 12 31  1  0  0  0  0
 12 32  1  0  0  0  0
 12 33  1  0  0  0  0
 13 14  2  0  0  0  0
 13 15  1  0  0  0  0
 14 16  1  0  0  0  0
 14 17  1  0  0  0  0
 15 18  2  0  0  0  0
 15 34  1  0  0  0  0
 16 19  2  0  0  0  0
 17 35  1  0  0  0  0
 17 36  1  0  0  0  0
 18 19  1  0  0  0  0
 18 37  1  0  0  0  0
 19 20  1  0  0  0  0
 20 38  1  0  0  0  0
 20 39  1  0  0  0  0
M  CHG  1  18   1
M  END
>  <Column 1>
COc1cc(C)c(Cc2c[nH+]c(N)nc2N)cc1OC ZINC000000000562

>  <Column 2>
Decoy31

>  <MMFF94 Energy>
-50.592

$$$$
Decoy32
 OpenBabel07082414533D

 22 22  0  0  1  0  0  0  0  0999 V2000
   -3.2208    0.5363    0.9834 O   0  0  0  0  0  0  0  0  0  0  0  0
   -2.1890   -0.0582    0.5635 C   0  0  0  0  0  0  0  0  0  0  0  0
   -2.0796   -1.2186    0.0531 O   0  5  0  0  0  0  0  0  0  0  0  0
   -0.8373    0.6908    0.7860 C   0  0  2  0  0  0  0  0  0  0  0  0
    0.1505    0.5575   -0.3017 N   0  0  0  0  0  0  0  0  0  0  0  0
   -0.1478    0.0120    1.9732 C   0  0  0  0  0  0  0  0  0  0  0  0
    0.0560    1.2925   -1.4590 C   0  0  0  0  0  0  0  0  0  0  0  0
    1.0745   -0.5373   -0.0425 C   0  0  0  0  0  0  0  0  0  0  0  0
    0.6934   -1.0948    1.3314 C   0  0  2  0  0  0  0  0  0  0  0  0
   -0.7230    2.2318   -1.6135 O   0  0  0  0  0  0  0  0  0  0  0  0
    1.0148    0.9135   -2.5593 C   0  0  0  0  0  0  0  0  0  0  0  0
   -0.0381   -2.3122    1.2120 O   0  0  0  0  0  0  0  0  0  0  0  0
   -1.0962    1.7235    0.8926 H   0  0  0  0  0  0  0  0  0  0  0  0
   -0.8695   -0.4011    2.6465 H   0  0  0  0  0  0  0  0  0  0  0  0
    0.4409    0.6932    2.5514 H   0  0  0  0  0  0  0  0  0  0  0  0
    2.0825   -0.1784   -0.0315 H   0  0  0  0  0  0  0  0  0  0  0  0
    1.0138   -1.2893   -0.8012 H   0  0  0  0  0  0  0  0  0  0  0  0
    1.5503   -1.3400    1.9234 H   0  0  0  0  0  0  0  0  0  0  0  0
    1.6075    0.0801   -2.2445 H   0  0  0  0  0  0  0  0  0  0  0  0
    1.6538    1.7436   -2.7772 H   0  0  0  0  0  0  0  0  0  0  0  0
    0.4635    0.6478   -3.4370 H   0  0  0  0  0  0  0  0  0  0  0  0
   -0.8357   -2.1595    0.6815 H   0  0  0  0  0  0  0  0  0  0  0  0
  1  2  2  0  0  0  0
  2  3  1  0  0  0  0
  2  4  1  0  0  0  0
  4  5  1  0  0  0  0
  4  6  1  0  0  0  0
  4 13  1  1  0  0  0
  5  7  1  0  0  0  0
  5  8  1  0  0  0  0
  6  9  1  0  0  0  0
  6 14  1  0  0  0  0
  6 15  1  0  0  0  0
  7 10  2  0  0  0  0
  7 11  1  0  0  0  0
  8  9  1  0  0  0  0
  8 16  1  0  0  0  0
  8 17  1  0  0  0  0
  9 12  1  0  0  0  0
  9 18  1  1  0  0  0
 11 19  1  0  0  0  0
 11 20  1  0  0  0  0
 11 21  1  0  0  0  0
 12 22  1  0  0  0  0
M  CHG  1   3  -1
M  END
>  <Column 1>
CC(=O)N1C[C@H](O)C[C@@H]1C(=O)[O-] ZINC000000000567

>  <Column 2>
Decoy32

>  <MMFF94 Energy>
51.113

$$$$
Decoy33
 OpenBabel07082414533D

 36 37  0  0  1  0  0  0  0  0999 V2000
    1.8812    2.8675   -3.0469 O   0  0  0  0  0  0  0  0  0  0  0  0
    2.1382    1.7134   -2.7091 C   0  0  0  0  0  0  0  0  0  0  0  0
    1.2719    0.9651   -1.7437 C   0  0  0  0  0  0  0  0  0  0  0  0
    3.4045    1.0273   -3.1747 C   0  0  0  0  0  0  0  0  0  0  0  0
    0.6647    1.6905   -0.7869 C   0  0  0  0  0  0  0  0  0  0  0  0
    1.1914   -0.5242   -1.9285 C   0  0  0  0  0  0  0  0  0  0  0  0
    3.2018   -0.4581   -3.4325 C   0  0  0  0  0  0  0  0  0  0  0  0
   -0.2054    1.1244    0.2466 C   0  0  0  0  0  0  0  0  0  0  0  0
    2.5532   -1.1432   -2.2361 C   0  0  0  0  0  0  0  0  0  0  0  0
   -1.4760    0.6369   -0.0720 C   0  0  0  0  0  0  0  0  0  0  0  0
    0.2397    1.0664    1.5700 C   0  0  0  0  0  0  0  0  0  0  0  0
   -2.2839    0.0769    0.9209 C   0  0  0  0  0  0  0  0  0  0  0  0
   -0.5712    0.5076    2.5621 C   0  0  0  0  0  0  0  0  0  0  0  0
   -1.8409    0.0015    2.2494 C   0  0  0  0  0  0  0  0  0  0  0  0
   -2.6919   -0.6413    3.3334 C   0  0  1  0  0  0  0  0  0  0  0  0
   -4.0923    0.0044    3.4218 C   0  0  0  0  0  0  0  0  0  0  0  0
   -2.7719   -2.1546    3.1365 C   0  0  0  0  0  0  0  0  0  0  0  0
   -4.1742    0.9960    4.2062 O   0  0  0  0  0  0  0  0  0  0  0  0
   -5.0059   -0.5368    2.7323 O   0  5  0  0  0  0  0  0  0  0  0  0
    4.1554    1.1454   -2.4217 H   0  0  0  0  0  0  0  0  0  0  0  0
    3.6986    1.4802   -4.0984 H   0  0  0  0  0  0  0  0  0  0  0  0
    0.8220    2.7104   -0.7808 H   0  0  0  0  0  0  0  0  0  0  0  0
    0.5262   -0.7351   -2.7396 H   0  0  0  0  0  0  0  0  0  0  0  0
    0.8372   -0.9496   -1.0128 H   0  0  0  0  0  0  0  0  0  0  0  0
    4.1521   -0.9121   -3.6214 H   0  0  0  0  0  0  0  0  0  0  0  0
    2.5549   -0.5694   -4.2775 H   0  0  0  0  0  0  0  0  0  0  0  0
    2.4246   -2.1828   -2.4545 H   0  0  0  0  0  0  0  0  0  0  0  0
    3.1874   -1.0171   -1.3836 H   0  0  0  0  0  0  0  0  0  0  0  0
   -1.8186    0.6908   -1.0440 H   0  0  0  0  0  0  0  0  0  0  0  0
    1.1707    1.4376    1.8159 H   0  0  0  0  0  0  0  0  0  0  0  0
   -3.2180   -0.2856    0.6737 H   0  0  0  0  0  0  0  0  0  0  0  0
   -0.2315    0.4671    3.5357 H   0  0  0  0  0  0  0  0  0  0  0  0
   -2.2133   -0.4621    4.2735 H   0  0  0  0  0  0  0  0  0  0  0  0
   -3.2472   -2.3680    2.2019 H   0  0  0  0  0  0  0  0  0  0  0  0
   -3.3399   -2.5883    3.9328 H   0  0  0  0  0  0  0  0  0  0  0  0
   -1.7846   -2.5670    3.1369 H   0  0  0  0  0  0  0  0  0  0  0  0
  1  2  2  0  0  0  0
  2  3  1  0  0  0  0
  2  4  1  0  0  0  0
  3  5  2  0  0  0  0
  3  6  1  0  0  0  0
  4  7  1  0  0  0  0
  4 20  1  0  0  0  0
  4 21  1  0  0  0  0
  5  8  1  0  0  0  0
  5 22  1  0  0  0  0
  6  9  1  0  0  0  0
  6 23  1  0  0  0  0
  6 24  1  0  0  0  0
  7  9  1  0  0  0  0
  7 25  1  0  0  0  0
  7 26  1  0  0  0  0
  8 10  2  0  0  0  0
  8 11  1  0  0  0  0
  9 27  1  0  0  0  0
  9 28  1  0  0  0  0
 10 12  1  0  0  0  0
 10 29  1  0  0  0  0
 11 13  2  0  0  0  0
 11 30  1  0  0  0  0
 12 14  2  0  0  0  0
 12 31  1  0  0  0  0
 13 14  1  0  0  0  0
 13 32  1  0  0  0  0
 14 15  1  0  0  0  0
 15 16  1  0  0  0  0
 15 17  1  0  0  0  0
 15 33  1  1  0  0  0
 16 18  2  0  0  0  0
 16 19  1  0  0  0  0
 17 34  1  0  0  0  0
 17 35  1  0  0  0  0
 17 36  1  0  0  0  0
M  CHG  1  19  -1
M  END
>  <Column 1>
C[C@H](C(=O)[O-])c1ccc(/C=C2\CCCCC2=O)cc1 ZINC000000000589

>  <Column 2>
Decoy33

>  <MMFF94 Energy>
64.256

$$$$
Decoy34
 OpenBabel07082414533D

 36 37  0  0  1  0  0  0  0  0999 V2000
    1.6910    0.0939    1.2211 O   0  0  0  0  0  0  0  0  0  0  0  0
    0.8663   -0.7796    1.5198 C   0  0  0  0  0  0  0  0  0  0  0  0
   -0.6041   -0.4396    1.3615 C   0  0  2  0  0  0  0  0  0  0  0  0
    1.3003   -2.2079    1.7524 C   0  0  0  0  0  0  0  0  0  0  0  0
   -1.5448   -1.4142    2.0717 C   0  0  0  0  0  0  0  0  0  0  0  0
   -0.8799   -0.3384   -0.1460 C   0  0  0  0  0  0  0  0  0  0  0  0
    0.2973   -3.0160    2.5542 C   0  0  0  0  0  0  0  0  0  0  0  0
   -1.1052   -2.8683    1.9825 C   0  0  0  0  0  0  0  0  0  0  0  0
   -0.0809    0.8020   -0.7772 N   0  3  0  0  0  0  0  0  0  0  0  0
    0.2294    0.5414   -2.2325 C   0  0  0  0  0  0  0  0  0  0  0  0
   -0.7159    2.1585   -0.5704 C   0  0  0  0  0  0  0  0  0  0  0  0
    1.1614    1.6226   -2.7600 C   0  0  0  0  0  0  0  0  0  0  0  0
    0.2170    3.2434   -1.0883 C   0  0  0  0  0  0  0  0  0  0  0  0
    0.5864    3.0178   -2.5493 C   0  0  0  0  0  0  0  0  0  0  0  0
   -0.8084    0.4926    1.8454 H   0  0  0  0  0  0  0  0  0  0  0  0
    2.2300   -2.1986    2.2819 H   0  0  0  0  0  0  0  0  0  0  0  0
    1.3880   -2.6731    0.7928 H   0  0  0  0  0  0  0  0  0  0  0  0
   -2.5158   -1.3278    1.6305 H   0  0  0  0  0  0  0  0  0  0  0  0
   -1.5409   -1.1508    3.1088 H   0  0  0  0  0  0  0  0  0  0  0  0
   -1.9238   -0.1600   -0.2989 H   0  0  0  0  0  0  0  0  0  0  0  0
   -0.5834   -1.2569   -0.6078 H   0  0  0  0  0  0  0  0  0  0  0  0
    0.3002   -2.6712    3.5671 H   0  0  0  0  0  0  0  0  0  0  0  0
    0.5768   -4.0478    2.5082 H   0  0  0  0  0  0  0  0  0  0  0  0
   -1.1063   -3.1780    0.9583 H   0  0  0  0  0  0  0  0  0  0  0  0
   -1.7824   -3.4783    2.5430 H   0  0  0  0  0  0  0  0  0  0  0  0
    0.8083    0.8277   -0.2782 H   0  0  0  0  0  0  0  0  0  0  0  0
   -0.6796    0.5491   -2.7969 H   0  0  0  0  0  0  0  0  0  0  0  0
    0.7038   -0.4129   -2.3282 H   0  0  0  0  0  0  0  0  0  0  0  0
   -0.8959    2.3120    0.4731 H   0  0  0  0  0  0  0  0  0  0  0  0
   -1.6423    2.2021   -1.1040 H   0  0  0  0  0  0  0  0  0  0  0  0
    1.3157    1.4661   -3.8072 H   0  0  0  0  0  0  0  0  0  0  0  0
    2.0837    1.5583   -2.2214 H   0  0  0  0  0  0  0  0  0  0  0  0
    1.1109    3.2420   -0.5003 H   0  0  0  0  0  0  0  0  0  0  0  0
   -0.2894    4.1830   -1.0132 H   0  0  0  0  0  0  0  0  0  0  0  0
   -0.2901    3.1294   -3.1527 H   0  0  0  0  0  0  0  0  0  0  0  0
    1.3283    3.7369   -2.8275 H   0  0  0  0  0  0  0  0  0  0  0  0
  1  2  2  0  0  0  0
  2  3  1  0  0  0  0
  2  4  1  0  0  0  0
  3  5  1  0  0  0  0
  3  6  1  0  0  0  0
  3 15  1  1  0  0  0
  4  7  1  0  0  0  0
  4 16  1  0  0  0  0
  4 17  1  0  0  0  0
  5  8  1  0  0  0  0
  5 18  1  0  0  0  0
  5 19  1  0  0  0  0
  6  9  1  0  0  0  0
  6 20  1  0  0  0  0
  6 21  1  0  0  0  0
  7  8  1  0  0  0  0
  7 22  1  0  0  0  0
  7 23  1  0  0  0  0
  8 24  1  0  0  0  0
  8 25  1  0  0  0  0
  9 10  1  0  0  0  0
  9 11  1  0  0  0  0
  9 26  1  0  0  0  0
 10 12  1  0  0  0  0
 10 27  1  0  0  0  0
 10 28  1  0  0  0  0
 11 13  1  0  0  0  0
 11 29  1  0  0  0  0
 11 30  1  0  0  0  0
 12 14  1  0  0  0  0
 12 31  1  0  0  0  0
 12 32  1  0  0  0  0
 13 14  1  0  0  0  0
 13 33  1  0  0  0  0
 13 34  1  0  0  0  0
 14 35  1  0  0  0  0
 14 36  1  0  0  0  0
M  CHG  1   9   1
M  END
>  <Column 1>
O=C1CCCC[C@@H]1C[NH+]1CCCCC1 ZINC000000000626

>  <Column 2>
Decoy34

>  <MMFF94 Energy>
4.0463

$$$$
Decoy35
 OpenBabel07082414533D

 29 29  0  0  1  0  0  0  0  0999 V2000
    2.3004    1.8578   -3.5407 O   0  0  0  0  0  0  0  0  0  0  0  0
    1.5963    1.5614   -2.5234 C   0  0  0  0  0  0  0  0  0  0  0  0
    0.7345    2.2506   -1.8975 O   0  5  0  0  0  0  0  0  0  0  0  0
    1.8541    0.0932   -1.9808 C   0  0  2  0  0  0  0  0  0  0  0  0
    2.3702    0.1730   -0.6474 O   0  0  0  0  0  0  0  0  0  0  0  0
    2.8169   -0.5690   -2.8201 O   0  0  0  0  0  0  0  0  0  0  0  0
    1.9773   -0.9135    0.1734 C   0  0  0  0  0  0  0  0  0  0  0  0
    0.5176   -0.8980    0.5628 C   0  0  0  0  0  0  0  0  0  0  0  0
   -0.2027    0.2489    0.9448 C   0  0  0  0  0  0  0  0  0  0  0  0
   -0.1673   -2.1169    0.5613 C   0  0  0  0  0  0  0  0  0  0  0  0
   -1.5734    0.0978    1.2251 C   0  0  0  0  0  0  0  0  0  0  0  0
    0.4300    1.6079    1.1099 C   0  0  0  0  0  0  0  0  0  0  0  0
   -1.4705   -2.2828    0.8837 N   0  0  0  0  0  0  0  0  0  0  0  0
   -2.3503    1.1947    1.5030 O   0  0  0  0  0  0  0  0  0  0  0  0
   -2.1655   -1.1641    1.1972 C   0  0  0  0  0  0  0  0  0  0  0  0
   -0.3703    2.5757    0.4295 O   0  0  0  0  0  0  0  0  0  0  0  0
   -3.6235   -1.3334    1.5013 C   0  0  0  0  0  0  0  0  0  0  0  0
    0.9369   -0.4579   -1.9869 H   0  0  0  0  0  0  0  0  0  0  0  0
    3.6484   -0.0695   -2.8146 H   0  0  0  0  0  0  0  0  0  0  0  0
    2.5637   -0.8877    1.0680 H   0  0  0  0  0  0  0  0  0  0  0  0
    2.1339   -1.8040   -0.3988 H   0  0  0  0  0  0  0  0  0  0  0  0
    0.3650   -2.9591    0.2922 H   0  0  0  0  0  0  0  0  0  0  0  0
    1.4151    1.5987    0.6924 H   0  0  0  0  0  0  0  0  0  0  0  0
    0.4930    1.8550    2.1491 H   0  0  0  0  0  0  0  0  0  0  0  0
   -1.9648    2.0484    1.5248 H   0  0  0  0  0  0  0  0  0  0  0  0
   -0.4240    2.3469   -0.5116 H   0  0  0  0  0  0  0  0  0  0  0  0
   -4.0527   -0.3807    1.7317 H   0  0  0  0  0  0  0  0  0  0  0  0
   -3.7393   -1.9888    2.3391 H   0  0  0  0  0  0  0  0  0  0  0  0
   -4.1192   -1.7515    0.6502 H   0  0  0  0  0  0  0  0  0  0  0  0
  1  2  2  0  0  0  0
  2  3  1  0  0  0  0
  2  4  1  0  0  0  0
  4  5  1  0  0  0  0
  4  6  1  0  0  0  0
  4 18  1  1  0  0  0
  5  7  1  0  0  0  0
  6 19  1  0  0  0  0
  7  8  1  0  0  0  0
  7 20  1  0  0  0  0
  7 21  1  0  0  0  0
  8  9  2  0  0  0  0
  8 10  1  0  0  0  0
  9 11  1  0  0  0  0
  9 12  1  0  0  0  0
 10 13  2  0  0  0  0
 10 22  1  0  0  0  0
 11 14  1  0  0  0  0
 11 15  2  0  0  0  0
 12 16  1  0  0  0  0
 12 23  1  0  0  0  0
 12 24  1  0  0  0  0
 13 15  1  0  0  0  0
 14 25  1  0  0  0  0
 15 17  1  0  0  0  0
 16 26  1  0  0  0  0
 17 27  1  0  0  0  0
 17 28  1  0  0  0  0
 17 29  1  0  0  0  0
M  CHG  1   3  -1
M  END
>  <Column 1>
Cc1ncc(CO[C@H](O)C(=O)[O-])c(CO)c1O ZINC000000000639

>  <Column 2>
Decoy35

>  <MMFF94 Energy>
87.838

$$$$
Decoy36
 OpenBabel07082414533D

 39 39  0  0  1  0  0  0  0  0999 V2000
    4.6725    1.8306    1.8306 O   0  0  0  0  0  0  0  0  0  0  0  0
    3.7310    1.5356    1.0922 C   0  0  0  0  0  0  0  0  0  0  0  0
    2.9621    0.3643    1.0593 N   0  0  0  0  0  0  0  0  0  0  0  0
    3.3298    2.5544    0.0762 C   0  0  0  0  0  0  0  0  0  0  0  0
    3.3440   -0.6747    1.8998 O   0  5  0  0  0  0  0  0  0  0  0  0
    1.9194    0.1130    0.1739 C   0  0  0  0  0  0  0  0  0  0  0  0
    2.3413    2.3167   -0.7980 C   0  0  0  0  0  0  0  0  0  0  0  0
    1.6368    1.0533   -0.7512 C   0  0  0  0  0  0  0  0  0  0  0  0
    1.1500   -1.2027    0.1743 C   0  0  0  0  0  0  0  0  0  0  0  0
    1.9171    3.3060   -1.8355 C   0  0  0  0  0  0  0  0  0  0  0  0
   -0.1557   -1.2857    1.0181 C   0  0  2  0  0  0  0  0  0  0  0  0
   -1.2891   -0.3306    0.5596 C   0  0  0  0  0  0  0  0  0  0  0  0
    0.1176   -1.0690    2.5117 C   0  0  0  0  0  0  0  0  0  0  0  0
   -2.3203   -0.8849   -0.4671 C   0  0  0  0  0  0  0  0  0  0  0  0
   -1.6597   -1.4251   -1.7417 C   0  0  0  0  0  0  0  0  0  0  0  0
   -3.2624    0.2712   -0.8640 C   0  0  0  0  0  0  0  0  0  0  0  0
   -3.1731   -1.9992    0.1677 C   0  0  0  0  0  0  0  0  0  0  0  0
    3.8237    3.4601    0.0465 H   0  0  0  0  0  0  0  0  0  0  0  0
    0.8967    0.8663   -1.4457 H   0  0  0  0  0  0  0  0  0  0  0  0
    1.8132   -1.9590    0.5391 H   0  0  0  0  0  0  0  0  0  0  0  0
    0.8223   -1.3209   -0.8374 H   0  0  0  0  0  0  0  0  0  0  0  0
    2.5187    4.1872   -1.7551 H   0  0  0  0  0  0  0  0  0  0  0  0
    0.8888    3.5612   -1.6857 H   0  0  0  0  0  0  0  0  0  0  0  0
    2.0402    2.8776   -2.8083 H   0  0  0  0  0  0  0  0  0  0  0  0
   -0.5078   -2.2821    0.8505 H   0  0  0  0  0  0  0  0  0  0  0  0
   -0.8269    0.5280    0.1190 H   0  0  0  0  0  0  0  0  0  0  0  0
   -1.8595   -0.1377    1.4441 H   0  0  0  0  0  0  0  0  0  0  0  0
    0.4690   -0.0706    2.6688 H   0  0  0  0  0  0  0  0  0  0  0  0
    0.8600   -1.7647    2.8431 H   0  0  0  0  0  0  0  0  0  0  0  0
   -0.7855   -1.2205    3.0652 H   0  0  0  0  0  0  0  0  0  0  0  0
   -1.0651   -0.6560   -2.1887 H   0  0  0  0  0  0  0  0  0  0  0  0
   -2.4164   -1.7369   -2.4310 H   0  0  0  0  0  0  0  0  0  0  0  0
   -1.0368   -2.2593   -1.4946 H   0  0  0  0  0  0  0  0  0  0  0  0
   -2.6918    1.0597   -1.3085 H   0  0  0  0  0  0  0  0  0  0  0  0
   -3.7616    0.6398    0.0077 H   0  0  0  0  0  0  0  0  0  0  0  0
   -3.9871   -0.0843   -1.5664 H   0  0  0  0  0  0  0  0  0  0  0  0
   -2.5407   -2.8142    0.4520 H   0  0  0  0  0  0  0  0  0  0  0  0
   -3.8983   -2.3409   -0.5410 H   0  0  0  0  0  0  0  0  0  0  0  0
   -3.6728   -1.6167    1.0331 H   0  0  0  0  0  0  0  0  0  0  0  0
  1  2  2  0  0  0  0
  2  3  1  0  0  0  0
  2  4  1  0  0  0  0
  3  5  1  0  0  0  0
  3  6  1  0  0  0  0
  4  7  2  0  0  0  0
  4 18  1  0  0  0  0
  6  8  2  0  0  0  0
  6  9  1  0  0  0  0
  7 10  1  0  0  0  0
  7  8  1  0  0  0  0
  8 19  1  0  0  0  0
  9 11  1  0  0  0  0
  9 20  1  0  0  0  0
  9 21  1  0  0  0  0
 10 22  1  0  0  0  0
 10 23  1  0  0  0  0
 10 24  1  0  0  0  0
 11 12  1  0  0  0  0
 11 13  1  0  0  0  0
 11 25  1  6  0  0  0
 12 14  1  0  0  0  0
 12 26  1  0  0  0  0
 12 27  1  0  0  0  0
 13 28  1  0  0  0  0
 13 29  1  0  0  0  0
 13 30  1  0  0  0  0
 14 15  1  0  0  0  0
 14 16  1  0  0  0  0
 14 17  1  0  0  0  0
 15 31  1  0  0  0  0
 15 32  1  0  0  0  0
 15 33  1  0  0  0  0
 16 34  1  0  0  0  0
 16 35  1  0  0  0  0
 16 36  1  0  0  0  0
 17 37  1  0  0  0  0
 17 38  1  0  0  0  0
 17 39  1  0  0  0  0
M  CHG  1   5  -1
M  END
>  <Column 1>
Cc1cc(C[C@@H](C)CC(C)(C)C)n([O-])c(=O)c1 ZINC000000000645

>  <Column 2>
Decoy36

>  <MMFF94 Energy>
73.832

$$$$
Decoy37
 OpenBabel07082414533D

 30 31  0  0  1  0  0  0  0  0999 V2000
   -1.1710   -2.4332   -1.1710 Cl  0  0  0  0  0  0  0  0  0  0  0  0
   -0.5416   -0.8999   -0.6530 C   0  0  0  0  0  0  0  0  0  0  0  0
   -0.3179   -0.6195    0.7146 C   0  0  0  0  0  0  0  0  0  0  0  0
   -0.3003    0.0588   -1.6465 C   0  0  0  0  0  0  0  0  0  0  0  0
   -0.5161   -1.5865    1.7035 N   0  0  0  0  0  0  0  0  0  0  0  0
    0.1655    0.6610    1.0273 C   0  0  0  0  0  0  0  0  0  0  0  0
    0.1667    1.3358   -1.3125 C   0  0  0  0  0  0  0  0  0  0  0  0
    0.5486   -2.5918    1.8049 C   0  0  0  0  0  0  0  0  0  0  0  0
   -1.0512   -1.2380    3.0180 C   0  0  0  0  0  0  0  0  0  0  0  0
    0.4025    1.6212    0.0355 C   0  0  0  0  0  0  0  0  0  0  0  0
    0.4317    2.3932   -2.3719 C   0  0  1  0  0  0  0  0  0  0  0  0
    0.3951   -3.0644    3.2151 C   0  0  0  0  0  0  0  0  0  0  0  0
   -0.4935   -2.3214    3.8827 C   0  0  0  0  0  0  0  0  0  0  0  0
    1.6235    1.9784   -3.2623 C   0  0  0  0  0  0  0  0  0  0  0  0
   -0.8223    2.7141   -3.1846 C   0  0  0  0  0  0  0  0  0  0  0  0
    2.7611    2.3195   -2.8202 O   0  0  0  0  0  0  0  0  0  0  0  0
    1.3382    1.3718   -4.3352 O   0  5  0  0  0  0  0  0  0  0  0  0
   -0.4689   -0.1795   -2.6364 H   0  0  0  0  0  0  0  0  0  0  0  0
    0.3511    0.9010    2.0137 H   0  0  0  0  0  0  0  0  0  0  0  0
    1.5122   -2.1555    1.6436 H   0  0  0  0  0  0  0  0  0  0  0  0
    0.4757   -3.3730    1.0773 H   0  0  0  0  0  0  0  0  0  0  0  0
   -2.1211   -1.2536    3.0180 H   0  0  0  0  0  0  0  0  0  0  0  0
   -0.7887   -0.2523    3.3412 H   0  0  0  0  0  0  0  0  0  0  0  0
    0.7563    2.5528    0.3038 H   0  0  0  0  0  0  0  0  0  0  0  0
    0.7007    3.3024   -1.8761 H   0  0  0  0  0  0  0  0  0  0  0  0
    0.9092   -3.8619    3.6210 H   0  0  0  0  0  0  0  0  0  0  0  0
   -0.7597   -2.4761    4.8677 H   0  0  0  0  0  0  0  0  0  0  0  0
   -1.1426    1.8372   -3.7074 H   0  0  0  0  0  0  0  0  0  0  0  0
   -0.6022    3.4889   -3.8890 H   0  0  0  0  0  0  0  0  0  0  0  0
   -1.6000    3.0409   -2.5263 H   0  0  0  0  0  0  0  0  0  0  0  0
  1  2  1  0  0  0  0
  2  3  2  0  0  0  0
  2  4  1  0  0  0  0
  3  5  1  0  0  0  0
  3  6  1  0  0  0  0
  4  7  2  0  0  0  0
  4 18  1  0  0  0  0
  5  8  1  0  0  0  0
  5  9  1  0  0  0  0
  6 10  2  0  0  0  0
  6 19  1  0  0  0  0
  7 11  1  0  0  0  0
  7 10  1  0  0  0  0
  8 12  1  0  0  0  0
  8 20  1  0  0  0  0
  8 21  1  0  0  0  0
  9 13  1  0  0  0  0
  9 22  1  0  0  0  0
  9 23  1  0  0  0  0
 10 24  1  0  0  0  0
 11 14  1  0  0  0  0
 11 15  1  0  0  0  0
 11 25  1  1  0  0  0
 12 13  2  0  0  0  0
 12 26  1  0  0  0  0
 13 27  1  0  0  0  0
 14 16  2  0  0  0  0
 14 17  1  0  0  0  0
 15 28  1  0  0  0  0
 15 29  1  0  0  0  0
 15 30  1  0  0  0  0
M  CHG  1  17  -1
M  END
>  <Column 1>
C[C@H](C(=O)[O-])c1ccc(N2CC=CC2)c(Cl)c1 ZINC000000000646

>  <Column 2>
Decoy37

>  <MMFF94 Energy>
74.281

$$$$
Decoy38
 OpenBabel07082414533D

 31 33  0  0  1  0  0  0  0  0999 V2000
   -1.4067    3.2551   -3.3432 O   0  0  0  0  0  0  0  0  0  0  0  0
   -2.0230    2.8691   -2.3062 C   0  0  0  0  0  0  0  0  0  0  0  0
   -3.1346    2.2675   -2.2252 O   0  5  0  0  0  0  0  0  0  0  0  0
   -1.3253    3.2058   -0.9690 C   0  0  2  0  0  0  0  0  0  0  0  0
   -0.3892    2.0937   -0.5219 C   0  0  0  0  0  0  0  0  0  0  0  0
   -2.3350    3.5359    0.1292 C   0  0  0  0  0  0  0  0  0  0  0  0
   -0.8246    0.7625   -0.4411 C   0  0  0  0  0  0  0  0  0  0  0  0
    0.9278    2.3911   -0.1465 C   0  0  0  0  0  0  0  0  0  0  0  0
    0.0345   -0.2565   -0.0044 C   0  0  0  0  0  0  0  0  0  0  0  0
    1.7861    1.3816    0.2951 C   0  0  0  0  0  0  0  0  0  0  0  0
    1.3392    0.0618    0.3667 C   0  0  0  0  0  0  0  0  0  0  0  0
   -0.4490   -1.6712    0.0450 C   0  0  0  0  0  0  0  0  0  0  0  0
    2.2470   -0.8669    0.8135 O   0  0  0  0  0  0  0  0  0  0  0  0
    0.5839   -2.6222    0.5630 C   0  0  0  0  0  0  0  0  0  0  0  0
    1.8547   -2.1810    0.9139 C   0  0  0  0  0  0  0  0  0  0  0  0
    0.2962   -3.9842    0.7020 C   0  0  0  0  0  0  0  0  0  0  0  0
    2.8196   -3.0077    1.3866 N   0  0  0  0  0  0  0  0  0  0  0  0
    1.2734   -4.8470    1.1823 C   0  0  0  0  0  0  0  0  0  0  0  0
    2.5080   -4.3145    1.5079 C   0  0  0  0  0  0  0  0  0  0  0  0
   -0.7332    4.0795   -1.1448 H   0  0  0  0  0  0  0  0  0  0  0  0
   -2.9420    2.6769    0.3255 H   0  0  0  0  0  0  0  0  0  0  0  0
   -2.9565    4.3465   -0.1896 H   0  0  0  0  0  0  0  0  0  0  0  0
   -1.8136    3.8155    1.0208 H   0  0  0  0  0  0  0  0  0  0  0  0
   -1.7939    0.5290   -0.7076 H   0  0  0  0  0  0  0  0  0  0  0  0
    1.2665    3.3646   -0.1968 H   0  0  0  0  0  0  0  0  0  0  0  0
    2.7538    1.6126    0.5693 H   0  0  0  0  0  0  0  0  0  0  0  0
   -0.7249   -1.9724   -0.9440 H   0  0  0  0  0  0  0  0  0  0  0  0
   -1.2805   -1.7029    0.7176 H   0  0  0  0  0  0  0  0  0  0  0  0
   -0.6367   -4.3460    0.4492 H   0  0  0  0  0  0  0  0  0  0  0  0
    1.0839   -5.8554    1.2929 H   0  0  0  0  0  0  0  0  0  0  0  0
    3.2339   -4.9553    1.8649 H   0  0  0  0  0  0  0  0  0  0  0  0
  1  2  2  0  0  0  0
  2  3  1  0  0  0  0
  2  4  1  0  0  0  0
  4  5  1  0  0  0  0
  4  6  1  0  0  0  0
  4 20  1  6  0  0  0
  5  7  2  0  0  0  0
  5  8  1  0  0  0  0
  6 21  1  0  0  0  0
  6 22  1  0  0  0  0
  6 23  1  0  0  0  0
  7  9  1  0  0  0  0
  7 24  1  0  0  0  0
  8 10  2  0  0  0  0
  8 25  1  0  0  0  0
  9 11  2  0  0  0  0
  9 12  1  0  0  0  0
 10 11  1  0  0  0  0
 10 26  1  0  0  0  0
 11 13  1  0  0  0  0
 12 14  1  0  0  0  0
 12 27  1  0  0  0  0
 12 28  1  0  0  0  0
 13 15  1  0  0  0  0
 14 16  1  0  0  0  0
 14 15  2  0  0  0  0
 15 17  1  0  0  0  0
 16 18  2  0  0  0  0
 16 29  1  0  0  0  0
 17 19  2  0  0  0  0
 18 19  1  0  0  0  0
 18 30  1  0  0  0  0
 19 31  1  0  0  0  0
M  CHG  1   3  -1
M  END
>  <Column 1>
C[C@H](C(=O)[O-])c1ccc2c(c1)Cc1cccnc1O2 ZINC000000000654

>  <Column 2>
Decoy38

>  <MMFF94 Energy>
69.673

$$$$
Decoy39
 OpenBabel07082414533D

 38 40  0  0  1  0  0  0  0  0999 V2000
    4.3114   -0.9869    0.6280 O   0  0  0  0  0  0  0  0  0  0  0  0
    3.4147   -1.2824    1.4710 C   0  0  0  0  0  0  0  0  0  0  0  0
    3.4309   -2.1514    2.3860 O   0  5  0  0  0  0  0  0  0  0  0  0
    2.1807   -0.3979    1.4211 C   0  0  0  0  0  0  0  0  0  0  0  0
    1.1209   -0.8517    0.4056 C   0  0  1  0  0  0  0  0  0  0  0  0
    0.4641   -2.0842    0.8087 O   0  0  0  0  0  0  0  0  0  0  0  0
    0.0347    0.2109    0.3435 C   0  0  0  0  0  0  0  0  0  0  0  0
    1.7126   -1.1126   -1.0047 C   0  0  0  0  0  0  0  0  0  0  0  0
   -0.4598   -1.9705    1.9005 C   0  0  0  0  0  0  0  0  0  0  0  0
    0.1845    1.4665   -0.1786 N   0  0  0  0  0  0  0  0  0  0  0  0
   -1.2471    0.1076    0.8414 C   0  0  0  0  0  0  0  0  0  0  0  0
    0.6810   -1.5375   -2.0635 C   0  0  0  0  0  0  0  0  0  0  0  0
   -1.6949   -1.1484    1.4944 C   0  0  0  0  0  0  0  0  0  0  0  0
   -0.9959    2.1694   -0.0554 C   0  0  0  0  0  0  0  0  0  0  0  0
   -1.9153    1.3332    0.5856 C   0  0  0  0  0  0  0  0  0  0  0  0
    1.3500   -1.8230   -3.4002 C   0  0  0  0  0  0  0  0  0  0  0  0
   -1.3139    3.4731   -0.4545 C   0  0  0  0  0  0  0  0  0  0  0  0
   -3.2121    1.8218    0.8374 C   0  0  0  0  0  0  0  0  0  0  0  0
   -2.6081    3.9340   -0.1939 C   0  0  0  0  0  0  0  0  0  0  0  0
   -3.5453    3.1227    0.4421 C   0  0  0  0  0  0  0  0  0  0  0  0
    2.4890    0.5939    1.1638 H   0  0  0  0  0  0  0  0  0  0  0  0
    1.7240   -0.4527    2.3872 H   0  0  0  0  0  0  0  0  0  0  0  0
    2.4442   -1.8889   -0.9212 H   0  0  0  0  0  0  0  0  0  0  0  0
    2.1235   -0.1825   -1.3379 H   0  0  0  0  0  0  0  0  0  0  0  0
    0.0271   -1.4879    2.7220 H   0  0  0  0  0  0  0  0  0  0  0  0
   -0.7806   -2.9525    2.1792 H   0  0  0  0  0  0  0  0  0  0  0  0
    1.0116    1.8163   -0.5821 H   0  0  0  0  0  0  0  0  0  0  0  0
   -0.0324   -0.7503   -2.1913 H   0  0  0  0  0  0  0  0  0  0  0  0
    0.1996   -2.4321   -1.7276 H   0  0  0  0  0  0  0  0  0  0  0  0
   -2.2718   -0.9142    2.3646 H   0  0  0  0  0  0  0  0  0  0  0  0
   -2.2977   -1.7138    0.8148 H   0  0  0  0  0  0  0  0  0  0  0  0
    1.8373   -0.9375   -3.7515 H   0  0  0  0  0  0  0  0  0  0  0  0
    0.6109   -2.1292   -4.1108 H   0  0  0  0  0  0  0  0  0  0  0  0
    2.0722   -2.6030   -3.2782 H   0  0  0  0  0  0  0  0  0  0  0  0
   -0.6178    4.0728   -0.9244 H   0  0  0  0  0  0  0  0  0  0  0  0
   -3.9104    1.2261    1.3091 H   0  0  0  0  0  0  0  0  0  0  0  0
   -2.8732    4.8903   -0.4772 H   0  0  0  0  0  0  0  0  0  0  0  0
   -4.4946    3.4844    0.6236 H   0  0  0  0  0  0  0  0  0  0  0  0
  1  2  2  0  0  0  0
  2  3  1  0  0  0  0
  2  4  1  0  0  0  0
  4 21  1  0  0  0  0
  4 22  1  0  0  0  0
  5  4  1  1  0  0  0
  5  6  1  0  0  0  0
  5  7  1  0  0  0  0
  5  8  1  0  0  0  0
  6  9  1  0  0  0  0
  7 10  1  0  0  0  0
  7 11  2  0  0  0  0
  8 12  1  0  0  0  0
  8 23  1  0  0  0  0
  8 24  1  0  0  0  0
  9 13  1  0  0  0  0
  9 25  1  0  0  0  0
  9 26  1  0  0  0  0
 10 14  1  0  0  0  0
 10 27  1  0  0  0  0
 11 15  1  0  0  0  0
 11 13  1  0  0  0  0
 12 16  1  0  0  0  0
 12 28  1  0  0  0  0
 12 29  1  0  0  0  0
 13 30  1  0  0  0  0
 13 31  1  0  0  0  0
 14 17  1  0  0  0  0
 14 15  2  0  0  0  0
 15 18  1  0  0  0  0
 16 32  1  0  0  0  0
 16 33  1  0  0  0  0
 16 34  1  0  0  0  0
 17 19  2  0  0  0  0
 17 35  1  0  0  0  0
 18 20  2  0  0  0  0
 18 36  1  0  0  0  0
 19 20  1  0  0  0  0
 19 37  1  0  0  0  0
 20 38  1  0  0  0  0
M  CHG  1   3  -1
M  END
>  <Column 1>
CCC[C@]1(CC(=O)[O-])OCCc2c1[nH]c1ccccc21 ZINC000000000662

>  <Column 2>
Decoy39

>  <MMFF94 Energy>
30.652

$$$$
Decoy40
 OpenBabel07082414533D

 43 45  0  0  1  0  0  0  0  0999 V2000
   -0.8009   -1.5132    1.6022 O   0  0  0  0  0  0  0  0  0  0  0  0
   -0.0820   -0.5185    1.4691 C   0  0  0  0  0  0  0  0  0  0  0  0
    0.2342   -0.0363    0.1867 N   0  0  0  0  0  0  0  0  0  0  0  0
    0.4063    0.1198    2.7065 C   0  0  0  0  0  0  0  0  0  0  0  0
    1.0718    1.0903   -0.0895 C   0  0  0  0  0  0  0  0  0  0  0  0
   -0.1414   -0.8975   -0.9467 C   0  0  0  0  0  0  0  0  0  0  0  0
    1.7237    0.5541    2.8490 C   0  0  0  0  0  0  0  0  0  0  0  0
   -0.4430    0.1655    3.8191 C   0  0  0  0  0  0  0  0  0  0  0  0
    2.2605    1.3187    0.6283 C   0  0  0  0  0  0  0  0  0  0  0  0
    0.7392    1.9735   -1.1288 C   0  0  0  0  0  0  0  0  0  0  0  0
   -1.5730   -0.6822   -1.5143 C   0  0  1  0  0  0  0  0  0  0  0  0
    2.1912    1.0427    4.0204 N   0  0  0  0  0  0  0  0  0  0  0  0
    2.6254    0.5414    1.7586 N   0  0  0  0  0  0  0  0  0  0  0  0
    0.0315    0.6731    5.0228 C   0  0  0  0  0  0  0  0  0  0  0  0
    3.0924    2.3952    0.2888 C   0  0  0  0  0  0  0  0  0  0  0  0
    1.5759    3.0435   -1.4605 C   0  0  0  0  0  0  0  0  0  0  0  0
   -1.8435   -1.5712   -2.7506 N   0  3  0  0  0  0  0  0  0  0  0  0
   -2.7187   -0.8850   -0.5231 C   0  0  0  0  0  0  0  0  0  0  0  0
    1.3463    1.0964    5.0737 C   0  0  0  0  0  0  0  0  0  0  0  0
    2.7562    3.2501   -0.7565 C   0  0  0  0  0  0  0  0  0  0  0  0
   -1.6538   -3.0521   -2.5360 C   0  0  0  0  0  0  0  0  0  0  0  0
   -1.1278   -1.0993   -3.9894 C   0  0  0  0  0  0  0  0  0  0  0  0
   -0.0653   -1.9152   -0.6252 H   0  0  0  0  0  0  0  0  0  0  0  0
    0.5280   -0.6411   -1.7411 H   0  0  0  0  0  0  0  0  0  0  0  0
   -1.4143   -0.1753    3.7457 H   0  0  0  0  0  0  0  0  0  0  0  0
   -0.1364    1.8308   -1.6561 H   0  0  0  0  0  0  0  0  0  0  0  0
   -1.5683    0.3551   -1.7769 H   0  0  0  0  0  0  0  0  0  0  0  0
    3.4610    0.0214    1.7826 H   0  0  0  0  0  0  0  0  0  0  0  0
   -0.5789    0.7321    5.8528 H   0  0  0  0  0  0  0  0  0  0  0  0
    3.9629    2.5551    0.8195 H   0  0  0  0  0  0  0  0  0  0  0  0
    1.3165    3.6810   -2.2295 H   0  0  0  0  0  0  0  0  0  0  0  0
   -2.8445   -1.4502   -2.9046 H   0  0  0  0  0  0  0  0  0  0  0  0
   -2.7606   -1.9138   -0.2321 H   0  0  0  0  0  0  0  0  0  0  0  0
   -3.6431   -0.6070   -0.9847 H   0  0  0  0  0  0  0  0  0  0  0  0
   -2.5544   -0.2762    0.3414 H   0  0  0  0  0  0  0  0  0  0  0  0
    1.7025    1.4744    5.9655 H   0  0  0  0  0  0  0  0  0  0  0  0
    3.3798    4.0331   -1.0075 H   0  0  0  0  0  0  0  0  0  0  0  0
   -0.6176   -3.2581   -2.3663 H   0  0  0  0  0  0  0  0  0  0  0  0
   -1.9857   -3.5836   -3.4033 H   0  0  0  0  0  0  0  0  0  0  0  0
   -2.2235   -3.3652   -1.6861 H   0  0  0  0  0  0  0  0  0  0  0  0
   -0.0723   -1.2144   -3.8572 H   0  0  0  0  0  0  0  0  0  0  0  0
   -1.3553   -0.0681   -4.1618 H   0  0  0  0  0  0  0  0  0  0  0  0
   -1.4475   -1.6803   -4.8291 H   0  0  0  0  0  0  0  0  0  0  0  0
  1  2  2  0  0  0  0
  2  3  1  0  0  0  0
  2  4  1  0  0  0  0
  3  5  1  0  0  0  0
  3  6  1  0  0  0  0
  4  7  2  0  0  0  0
  4  8  1  0  0  0  0
  5  9  2  0  0  0  0
  5 10  1  0  0  0  0
  6 11  1  0  0  0  0
  6 23  1  0  0  0  0
  6 24  1  0  0  0  0
  7 12  1  0  0  0  0
  7 13  1  0  0  0  0
  8 14  2  0  0  0  0
  8 25  1  0  0  0  0
  9 15  1  0  0  0  0
  9 13  1  0  0  0  0
 10 16  2  0  0  0  0
 10 26  1  0  0  0  0
 11 17  1  0  0  0  0
 11 18  1  0  0  0  0
 11 27  1  6  0  0  0
 12 19  2  0  0  0  0
 13 28  1  0  0  0  0
 14 19  1  0  0  0  0
 14 29  1  0  0  0  0
 15 20  2  0  0  0  0
 15 30  1  0  0  0  0
 16 20  1  0  0  0  0
 16 31  1  0  0  0  0
 17 21  1  0  0  0  0
 17 22  1  0  0  0  0
 17 32  1  0  0  0  0
 18 33  1  0  0  0  0
 18 34  1  0  0  0  0
 18 35  1  0  0  0  0
 19 36  1  0  0  0  0
 20 37  1  0  0  0  0
 21 38  1  0  0  0  0
 21 39  1  0  0  0  0
 21 40  1  0  0  0  0
 22 41  1  0  0  0  0
 22 42  1  0  0  0  0
 22 43  1  0  0  0  0
M  CHG  1  17   1
M  END
>  <Column 1>
C[C@@H](CN1C(=O)c2cccnc2Nc2ccccc21)[NH+](C)C ZINC000000000671

>  <Column 2>
Decoy40

>  <MMFF94 Energy>
87.924

$$$$
Decoy41
 OpenBabel07082414533D

 43 44  0  0  0  0  0  0  0  0999 V2000
   -0.7943   -3.2684   -1.4124 O   0  0  0  0  0  0  0  0  0  0  0  0
   -0.0909   -2.3398   -1.8038 C   0  0  0  0  0  0  0  0  0  0  0  0
    0.6811   -2.3742   -3.0716 C   0  0  0  0  0  0  0  0  0  0  0  0
    0.0074   -1.0728   -1.0315 C   0  0  0  0  0  0  0  0  0  0  0  0
    0.7678   -3.5646   -3.9443 C   0  0  0  0  0  0  0  0  0  0  0  0
    1.3267   -1.2307   -3.3984 C   0  0  0  0  0  0  0  0  0  0  0  0
    0.7600   -0.0025   -1.5656 C   0  0  0  0  0  0  0  0  0  0  0  0
   -0.6611   -0.9667    0.1966 C   0  0  0  0  0  0  0  0  0  0  0  0
    0.8830   -3.5375   -5.1647 O   0  0  0  0  0  0  0  0  0  0  0  0
    0.7596   -4.7038   -3.2003 O   0  0  0  0  0  0  0  0  0  0  0  0
    1.4151   -0.0430   -2.7495 N   0  5  0  0  0  0  0  0  0  0  0  0
    0.8248    1.1750   -0.8013 C   0  0  0  0  0  0  0  0  0  0  0  0
   -0.5939    0.2224    0.9142 C   0  0  0  0  0  0  0  0  0  0  0  0
    0.8419   -5.9010   -3.9663 C   0  0  0  0  0  0  0  0  0  0  0  0
    0.1860    1.2795    0.4410 C   0  0  0  0  0  0  0  0  0  0  0  0
   -1.2543    0.2805    2.1158 O   0  0  0  0  0  0  0  0  0  0  0  0
    0.2747    2.4328    1.1801 O   0  0  0  0  0  0  0  0  0  0  0  0
   -2.4071    1.1354    2.0417 C   0  0  0  0  0  0  0  0  0  0  0  0
    1.6185    2.6892    1.6173 C   0  0  0  0  0  0  0  0  0  0  0  0
   -3.6536    0.2611    1.9312 C   0  0  0  0  0  0  0  0  0  0  0  0
   -2.4504    1.9594    3.3245 C   0  0  0  0  0  0  0  0  0  0  0  0
    1.9943    4.0989    1.1742 C   0  0  0  0  0  0  0  0  0  0  0  0
    1.6440    2.5809    3.1389 C   0  0  0  0  0  0  0  0  0  0  0  0
    1.8388   -1.2688   -4.2935 H   0  0  0  0  0  0  0  0  0  0  0  0
   -1.1995   -1.7661    0.5655 H   0  0  0  0  0  0  0  0  0  0  0  0
    1.3558    1.9822   -1.1640 H   0  0  0  0  0  0  0  0  0  0  0  0
    0.8297   -6.7459   -3.3099 H   0  0  0  0  0  0  0  0  0  0  0  0
    1.7507   -5.9013   -4.5311 H   0  0  0  0  0  0  0  0  0  0  0  0
    0.0072   -5.9556   -4.6335 H   0  0  0  0  0  0  0  0  0  0  0  0
   -2.3628    1.7849    1.1925 H   0  0  0  0  0  0  0  0  0  0  0  0
    2.3142    1.9909    1.2011 H   0  0  0  0  0  0  0  0  0  0  0  0
   -3.7068   -0.3926    2.7766 H   0  0  0  0  0  0  0  0  0  0  0  0
   -3.6035   -0.3197    1.0339 H   0  0  0  0  0  0  0  0  0  0  0  0
   -4.5241    0.8827    1.9056 H   0  0  0  0  0  0  0  0  0  0  0  0
   -2.4945    1.3033    4.1686 H   0  0  0  0  0  0  0  0  0  0  0  0
   -3.3163    2.5879    3.3156 H   0  0  0  0  0  0  0  0  0  0  0  0
   -1.5707    2.5651    3.3892 H   0  0  0  0  0  0  0  0  0  0  0  0
    1.3004    4.8000    1.5888 H   0  0  0  0  0  0  0  0  0  0  0  0
    1.9647    4.1569    0.1062 H   0  0  0  0  0  0  0  0  0  0  0  0
    2.9815    4.3291    1.5167 H   0  0  0  0  0  0  0  0  0  0  0  0
    0.9490    3.2784    3.5578 H   0  0  0  0  0  0  0  0  0  0  0  0
    2.6286    2.8005    3.4957 H   0  0  0  0  0  0  0  0  0  0  0  0
    1.3723    1.5879    3.4304 H   0  0  0  0  0  0  0  0  0  0  0  0
  1  2  2  0  0  0  0
  2  3  1  0  0  0  0
  2  4  1  0  0  0  0
  3  5  1  0  0  0  0
  3  6  2  0  0  0  0
  4  7  2  0  0  0  0
  4  8  1  0  0  0  0
  5  9  2  0  0  0  0
  5 10  1  0  0  0  0
  6 11  1  0  0  0  0
  6 24  1  0  0  0  0
  7 12  1  0  0  0  0
  7 11  1  0  0  0  0
  8 13  2  0  0  0  0
  8 25  1  0  0  0  0
 10 14  1  0  0  0  0
 12 15  2  0  0  0  0
 12 26  1  0  0  0  0
 13 16  1  0  0  0  0
 13 15  1  0  0  0  0
 14 27  1  0  0  0  0
 14 28  1  0  0  0  0
 14 29  1  0  0  0  0
 15 17  1  0  0  0  0
 16 18  1  0  0  0  0
 17 19  1  0  0  0  0
 18 20  1  0  0  0  0
 18 21  1  0  0  0  0
 18 30  1  0  0  0  0
 19 22  1  0  0  0  0
 19 23  1  0  0  0  0
 19 31  1  0  0  0  0
 20 32  1  0  0  0  0
 20 33  1  0  0  0  0
 20 34  1  0  0  0  0
 21 35  1  0  0  0  0
 21 36  1  0  0  0  0
 21 37  1  0  0  0  0
 22 38  1  0  0  0  0
 22 39  1  0  0  0  0
 22 40  1  0  0  0  0
 23 41  1  0  0  0  0
 23 42  1  0  0  0  0
 23 43  1  0  0  0  0
M  CHG  1  11  -1
M  END
>  <Column 1>
COC(=O)c1c[n-]c2cc(OC(C)C)c(OC(C)C)cc2c1=O ZINC000000000672

>  <Column 2>
Decoy41

>  <MMFF94 Energy>
78.887

$$$$
Decoy42
 OpenBabel07082414533D

 38 40  0  0  1  0  0  0  0  0999 V2000
   -1.0820    0.3606   -2.3454 S   0  0  0  0  0  0  0  0  0  0  0  0
   -1.3157    1.6691   -1.1581 C   0  0  0  0  0  0  0  0  0  0  0  0
   -0.1268   -0.8214   -1.4119 C   0  0  0  0  0  0  0  0  0  0  0  0
   -0.5958    1.7475    0.0487 C   0  0  0  0  0  0  0  0  0  0  0  0
   -2.2678    2.6507   -1.4917 C   0  0  0  0  0  0  0  0  0  0  0  0
    0.4914   -0.5105   -0.1853 C   0  0  0  0  0  0  0  0  0  0  0  0
   -0.0025   -2.1043   -1.9716 C   0  0  0  0  0  0  0  0  0  0  0  0
    0.3843    0.7853    0.3885 N   0  0  0  0  0  0  0  0  0  0  0  0
   -0.9191    2.8156    0.9107 C   0  0  0  0  0  0  0  0  0  0  0  0
   -2.5517    3.7094   -0.6314 C   0  0  0  0  0  0  0  0  0  0  0  0
    1.2022   -1.5514    0.4551 C   0  0  0  0  0  0  0  0  0  0  0  0
    0.7246   -3.1004   -1.3241 C   0  0  0  0  0  0  0  0  0  0  0  0
    1.3606    1.1329    1.4247 C   0  0  0  0  0  0  0  0  0  0  0  0
   -1.8769    3.7846    0.5790 C   0  0  0  0  0  0  0  0  0  0  0  0
   -3.5003    4.5843   -1.0826 O   0  0  0  0  0  0  0  0  0  0  0  0
    1.3418   -2.8358   -0.1020 C   0  0  0  0  0  0  0  0  0  0  0  0
   -3.8546    5.6513   -0.2126 C   0  0  0  0  0  0  0  0  0  0  0  0
    2.1556   -3.8961    0.6240 C   0  0  1  0  0  0  0  0  0  0  0  0
    1.2695   -5.0883    1.0448 C   0  0  0  0  0  0  0  0  0  0  0  0
    3.3625   -4.3414   -0.2018 C   0  0  0  0  0  0  0  0  0  0  0  0
    0.7466   -4.9810    2.1942 O   0  0  0  0  0  0  0  0  0  0  0  0
    1.1872   -6.0462    0.2218 O   0  5  0  0  0  0  0  0  0  0  0  0
   -2.7663    2.5848   -2.3929 H   0  0  0  0  0  0  0  0  0  0  0  0
   -0.4563   -2.3114   -2.8751 H   0  0  0  0  0  0  0  0  0  0  0  0
   -0.4333    2.8867    1.8184 H   0  0  0  0  0  0  0  0  0  0  0  0
    1.6376   -1.3608    1.3711 H   0  0  0  0  0  0  0  0  0  0  0  0
    0.8068   -4.0368   -1.7500 H   0  0  0  0  0  0  0  0  0  0  0  0
    1.1729    2.1273    1.7724 H   0  0  0  0  0  0  0  0  0  0  0  0
    2.3483    1.0781    1.0169 H   0  0  0  0  0  0  0  0  0  0  0  0
    1.2734    0.4471    2.2414 H   0  0  0  0  0  0  0  0  0  0  0  0
   -2.0802    4.5544    1.2356 H   0  0  0  0  0  0  0  0  0  0  0  0
   -4.6008    6.2596   -0.6797 H   0  0  0  0  0  0  0  0  0  0  0  0
   -2.9889    6.2450   -0.0054 H   0  0  0  0  0  0  0  0  0  0  0  0
   -4.2408    5.2524    0.7021 H   0  0  0  0  0  0  0  0  0  0  0  0
    2.5399   -3.4553    1.5201 H   0  0  0  0  0  0  0  0  0  0  0  0
    3.0254   -4.7907   -1.1125 H   0  0  0  0  0  0  0  0  0  0  0  0
    3.9339   -5.0530    0.3568 H   0  0  0  0  0  0  0  0  0  0  0  0
    3.9730   -3.4922   -0.4277 H   0  0  0  0  0  0  0  0  0  0  0  0
  1  2  1  0  0  0  0
  1  3  1  0  0  0  0
  2  4  2  0  0  0  0
  2  5  1  0  0  0  0
  3  6  2  0  0  0  0
  3  7  1  0  0  0  0
  4  8  1  0  0  0  0
  4  9  1  0  0  0  0
  5 10  2  0  0  0  0
  5 23  1  0  0  0  0
  6 11  1  0  0  0  0
  6  8  1  0  0  0  0
  7 12  2  0  0  0  0
  7 24  1  0  0  0  0
  8 13  1  0  0  0  0
  9 14  2  0  0  0  0
  9 25  1  0  0  0  0
 10 15  1  0  0  0  0
 10 14  1  0  0  0  0
 11 16  2  0  0  0  0
 11 26  1  0  0  0  0
 12 16  1  0  0  0  0
 12 27  1  0  0  0  0
 13 28  1  0  0  0  0
 13 29  1  0  0  0  0
 13 30  1  0  0  0  0
 14 31  1  0  0  0  0
 15 17  1  0  0  0  0
 16 18  1  0  0  0  0
 17 32  1  0  0  0  0
 17 33  1  0  0  0  0
 17 34  1  0  0  0  0
 18 19  1  0  0  0  0
 18 20  1  0  0  0  0
 18 35  1  1  0  0  0
 19 21  2  0  0  0  0
 19 22  1  0  0  0  0
 20 36  1  0  0  0  0
 20 37  1  0  0  0  0
 20 38  1  0  0  0  0
M  CHG  1  22  -1
M  END
>  <Column 1>
COc1ccc2c(c1)Sc1ccc([C@H](C)C(=O)[O-])cc1N2C ZINC000000000676

>  <Column 2>
Decoy42

>  <MMFF94 Energy>
101.46

$$$$
Decoy43
 OpenBabel07082414533D

 34 34  0  0  1  0  0  0  0  0999 V2000
    2.1742    0.3621    1.6303 O   0  0  0  0  0  0  0  0  0  0  0  0
    1.3233   -0.4141    2.1570 C   0  0  0  0  0  0  0  0  0  0  0  0
    1.0420   -0.5771    3.3735 O   0  5  0  0  0  0  0  0  0  0  0  0
    0.5842   -1.3037    1.1460 C   0  0  2  0  0  0  0  0  0  0  0  0
   -0.7060   -0.6214    0.6480 C   0  0  2  0  0  0  0  0  0  0  0  0
    0.3342   -2.7288    1.6642 C   0  0  0  0  0  0  0  0  0  0  0  0
   -0.5458    0.8398    0.1844 C   0  0  0  0  0  0  0  0  0  0  0  0
   -1.8206   -0.6977    1.7142 C   0  0  0  0  0  0  0  0  0  0  0  0
   -1.0240   -2.9913    2.2516 C   0  0  0  0  0  0  0  0  0  0  0  0
   -1.1928    1.7440    0.7292 O   0  0  0  0  0  0  0  0  0  0  0  0
    0.2571    1.1280   -0.9232 N   0  0  0  0  0  0  0  0  0  0  0  0
   -1.9960   -2.0717    2.2891 C   0  0  0  0  0  0  0  0  0  0  0  0
    0.6867    2.5209   -1.0501 C   0  0  0  0  0  0  0  0  0  0  0  0
    0.9507    0.1300   -1.7373 C   0  0  0  0  0  0  0  0  0  0  0  0
   -0.2810    3.3530   -1.8789 C   0  0  0  0  0  0  0  0  0  0  0  0
    0.9189    0.4230   -3.2314 C   0  0  0  0  0  0  0  0  0  0  0  0
    1.2334   -1.4218    0.3036 H   0  0  0  0  0  0  0  0  0  0  0  0
   -0.9739   -1.1799   -0.2244 H   0  0  0  0  0  0  0  0  0  0  0  0
    1.0625   -2.9337    2.4208 H   0  0  0  0  0  0  0  0  0  0  0  0
    0.4024   -3.3626    0.8048 H   0  0  0  0  0  0  0  0  0  0  0  0
   -2.7434   -0.3975    1.2634 H   0  0  0  0  0  0  0  0  0  0  0  0
   -1.5363   -0.0510    2.5178 H   0  0  0  0  0  0  0  0  0  0  0  0
   -1.2166   -3.9257    2.6451 H   0  0  0  0  0  0  0  0  0  0  0  0
   -2.8970   -2.3166    2.7287 H   0  0  0  0  0  0  0  0  0  0  0  0
    1.6479    2.5427   -1.5196 H   0  0  0  0  0  0  0  0  0  0  0  0
    0.7209    2.9427   -0.0673 H   0  0  0  0  0  0  0  0  0  0  0  0
    0.4892   -0.8208   -1.5704 H   0  0  0  0  0  0  0  0  0  0  0  0
    1.9783    0.1455   -1.4393 H   0  0  0  0  0  0  0  0  0  0  0  0
   -0.3362    2.9538   -2.8701 H   0  0  0  0  0  0  0  0  0  0  0  0
    0.0640    4.3650   -1.9206 H   0  0  0  0  0  0  0  0  0  0  0  0
   -1.2513    3.3253   -1.4287 H   0  0  0  0  0  0  0  0  0  0  0  0
   -0.0946    0.4174   -3.5745 H   0  0  0  0  0  0  0  0  0  0  0  0
    1.4764   -0.3262   -3.7537 H   0  0  0  0  0  0  0  0  0  0  0  0
    1.3526    1.3836   -3.4158 H   0  0  0  0  0  0  0  0  0  0  0  0
  1  2  2  0  0  0  0
  2  3  1  0  0  0  0
  2  4  1  0  0  0  0
  4  5  1  0  0  0  0
  4  6  1  0  0  0  0
  4 17  1  6  0  0  0
  5  7  1  0  0  0  0
  5  8  1  0  0  0  0
  5 18  1  6  0  0  0
  6  9  1  0  0  0  0
  6 19  1  0  0  0  0
  6 20  1  0  0  0  0
  7 10  2  0  0  0  0
  7 11  1  0  0  0  0
  8 12  1  0  0  0  0
  8 21  1  0  0  0  0
  8 22  1  0  0  0  0
  9 12  2  0  0  0  0
  9 23  1  0  0  0  0
 11 13  1  0  0  0  0
 11 14  1  0  0  0  0
 12 24  1  0  0  0  0
 13 15  1  0  0  0  0
 13 25  1  0  0  0  0
 13 26  1  0  0  0  0
 14 16  1  0  0  0  0
 14 27  1  0  0  0  0
 14 28  1  0  0  0  0
 15 29  1  0  0  0  0
 15 30  1  0  0  0  0
 15 31  1  0  0  0  0
 16 32  1  0  0  0  0
 16 33  1  0  0  0  0
 16 34  1  0  0  0  0
M  CHG  1   3  -1
M  END
>  <Column 1>
CCN(CC)C(=O)[C@@H]1CC=CC[C@@H]1C(=O)[O-] ZINC000000000687

>  <Column 2>
Decoy43

>  <MMFF94 Energy>
-9.1337

$$$$
Decoy44
 OpenBabel07082414533D

 39 44  0  0  0  0  0  0  0  0999 V2000
   -4.3014   -0.0877    2.1930 O   0  0  0  0  0  0  0  0  0  0  0  0
   -3.0141   -0.4846    2.4124 C   0  0  0  0  0  0  0  0  0  0  0  0
   -4.9580   -0.5968    3.3797 C   0  0  0  0  0  0  0  0  0  0  0  0
   -1.9328   -0.2552    1.5647 C   0  0  0  0  0  0  0  0  0  0  0  0
   -2.8809   -1.1510    3.6026 C   0  0  0  0  0  0  0  0  0  0  0  0
   -4.0521   -1.2655    4.2772 O   0  0  0  0  0  0  0  0  0  0  0  0
   -0.6599   -0.7179    1.9270 C   0  0  0  0  0  0  0  0  0  0  0  0
   -2.0888    0.4584    0.3912 C   0  0  0  0  0  0  0  0  0  0  0  0
   -1.6639   -1.6244    4.0184 C   0  0  0  0  0  0  0  0  0  0  0  0
    0.4167   -0.4819    1.0126 C   0  0  0  0  0  0  0  0  0  0  0  0
   -0.5606   -1.4068    3.1817 C   0  0  0  0  0  0  0  0  0  0  0  0
   -1.0590    0.7192   -0.4453 N   0  3  0  0  0  0  0  0  0  0  0  0
    0.1871    0.1599   -0.2563 C   0  0  0  0  0  0  0  0  0  0  0  0
    1.7319   -0.8675    1.3234 C   0  0  0  0  0  0  0  0  0  0  0  0
   -1.3339    1.7685   -1.4533 C   0  0  0  0  0  0  0  0  0  0  0  0
    1.2513    0.1986   -1.2456 C   0  0  0  0  0  0  0  0  0  0  0  0
    2.7869   -0.6857    0.4363 C   0  0  0  0  0  0  0  0  0  0  0  0
    2.5683   -0.1895   -0.8414 C   0  0  0  0  0  0  0  0  0  0  0  0
    1.1151    0.5329   -2.6258 C   0  0  0  0  0  0  0  0  0  0  0  0
    3.6727   -0.1217   -1.7111 C   0  0  0  0  0  0  0  0  0  0  0  0
    2.2190    0.5795   -3.4565 C   0  0  0  0  0  0  0  0  0  0  0  0
    3.4690    0.2753   -3.0079 C   0  0  0  0  0  0  0  0  0  0  0  0
    2.2015    0.9040   -4.7758 O   0  0  0  0  0  0  0  0  0  0  0  0
    4.4118    0.3744   -3.9777 O   0  0  0  0  0  0  0  0  0  0  0  0
    3.6044    0.7726   -5.1063 C   0  0  0  0  0  0  0  0  0  0  0  0
   -5.7157   -1.2902    3.0799 H   0  0  0  0  0  0  0  0  0  0  0  0
   -5.3697    0.2405    3.9035 H   0  0  0  0  0  0  0  0  0  0  0  0
   -3.0285    0.8059    0.1437 H   0  0  0  0  0  0  0  0  0  0  0  0
   -1.5633   -2.1236    4.9160 H   0  0  0  0  0  0  0  0  0  0  0  0
    0.3628   -1.7571    3.4810 H   0  0  0  0  0  0  0  0  0  0  0  0
    1.9210   -1.3002    2.2410 H   0  0  0  0  0  0  0  0  0  0  0  0
   -2.3676    2.0417   -1.4110 H   0  0  0  0  0  0  0  0  0  0  0  0
   -1.1034    1.3948   -2.4291 H   0  0  0  0  0  0  0  0  0  0  0  0
   -0.7294    2.6272   -1.2482 H   0  0  0  0  0  0  0  0  0  0  0  0
    3.7466   -0.9232    0.7322 H   0  0  0  0  0  0  0  0  0  0  0  0
    0.1802    0.7427   -3.0091 H   0  0  0  0  0  0  0  0  0  0  0  0
    4.6187   -0.3663   -1.3790 H   0  0  0  0  0  0  0  0  0  0  0  0
    3.9605    1.7156   -5.4653 H   0  0  0  0  0  0  0  0  0  0  0  0
    3.6894    0.0066   -5.8485 H   0  0  0  0  0  0  0  0  0  0  0  0
  1  2  1  0  0  0  0
  1  3  1  0  0  0  0
  2  4  1  0  0  0  0
  2  5  2  0  0  0  0
  3  6  1  0  0  0  0
  3 26  1  0  0  0  0
  3 27  1  0  0  0  0
  4  7  1  0  0  0  0
  4  8  2  0  0  0  0
  5  9  1  0  0  0  0
  5  6  1  0  0  0  0
  7 10  2  0  0  0  0
  7 11  1  0  0  0  0
  8 12  1  0  0  0  0
  8 28  1  0  0  0  0
  9 11  2  0  0  0  0
  9 29  1  0  0  0  0
 10 13  1  0  0  0  0
 10 14  1  0  0  0  0
 11 30  1  0  0  0  0
 12 15  1  0  0  0  0
 12 13  2  0  0  0  0
 13 16  1  0  0  0  0
 14 17  2  0  0  0  0
 14 31  1  0  0  0  0
 15 32  1  0  0  0  0
 15 33  1  0  0  0  0
 15 34  1  0  0  0  0
 16 18  1  0  0  0  0
 16 19  2  0  0  0  0
 17 18  1  0  0  0  0
 17 35  1  0  0  0  0
 18 20  2  0  0  0  0
 19 21  1  0  0  0  0
 19 36  1  0  0  0  0
 20 22  1  0  0  0  0
 20 37  1  0  0  0  0
 21 23  1  0  0  0  0
 21 22  2  0  0  0  0
 22 24  1  0  0  0  0
 23 25  1  0  0  0  0
 24 25  1  0  0  0  0
 25 38  1  0  0  0  0
 25 39  1  0  0  0  0
M  CHG  1  12   1
M  END
>  <Column 1>
C[n+]1cc2c3c(ccc2c2ccc4cc5c(cc4c21)OCO5)OCO3 ZINC000000000706

>  <Column 2>
Decoy44

>  <MMFF94 Energy>
105.39

$$$$
Decoy45
 OpenBabel07082414533D

 45 48  0  0  1  0  0  0  0  0999 V2000
    0.0953    0.7623   -2.0018 N   0  3  2  0  0  0  0  0  0  0  0  0
   -1.2501    1.1158   -1.3444 C   0  0  1  0  0  0  0  0  0  0  0  0
    0.9813   -0.0858   -1.1111 C   0  0  0  0  0  0  0  0  0  0  0  0
    0.7899    1.8845   -2.7300 C   0  0  0  0  0  0  0  0  0  0  0  0
   -1.7238   -0.0756   -0.4538 C   0  0  2  0  0  0  0  0  0  0  0  0
   -1.2209    2.4885   -0.6590 C   0  0  0  0  0  0  0  0  0  0  0  0
    0.2732   -1.4323   -0.8068 C   0  0  2  0  0  0  0  0  0  0  0  0
    0.8151    3.1614   -1.9166 C   0  0  0  0  0  0  0  0  0  0  0  0
   -1.2394   -0.0171    1.0313 C   0  0  0  0  0  0  0  0  0  0  0  0
   -1.2336   -1.3708   -1.1126 C   0  0  0  0  0  0  0  0  0  0  0  0
   -0.5967    3.5708   -1.5266 C   0  0  0  0  0  0  0  0  0  0  0  0
    0.3906   -1.8793    0.6734 C   0  0  2  0  0  0  0  0  0  0  0  0
   -0.6443   -1.2610    1.5263 N   0  3  1  0  0  0  0  0  0  0  0  0
    1.8033   -1.7669    1.2607 C   0  0  0  0  0  0  0  0  0  0  0  0
   -0.2921   -1.1766    2.9520 C   0  0  0  0  0  0  0  0  0  0  0  0
    1.8831   -2.4291    2.6385 C   0  0  0  0  0  0  0  0  0  0  0  0
    0.5599   -2.3610    3.4020 C   0  0  0  0  0  0  0  0  0  0  0  0
   -0.1552    0.1542   -2.7815 H   0  0  0  0  0  0  0  0  0  0  0  0
   -2.0016    1.2412   -2.0957 H   0  0  0  0  0  0  0  0  0  0  0  0
    1.1675    0.4341   -0.1946 H   0  0  0  0  0  0  0  0  0  0  0  0
    1.9092   -0.2758   -1.6089 H   0  0  0  0  0  0  0  0  0  0  0  0
    0.2743    2.0708   -3.6489 H   0  0  0  0  0  0  0  0  0  0  0  0
    1.8022    1.5861   -2.9066 H   0  0  0  0  0  0  0  0  0  0  0  0
   -2.7911   -0.0253   -0.3966 H   0  0  0  0  0  0  0  0  0  0  0  0
   -0.6543    2.4067    0.2449 H   0  0  0  0  0  0  0  0  0  0  0  0
   -2.2345    2.7741   -0.4695 H   0  0  0  0  0  0  0  0  0  0  0  0
    0.7783   -2.1323   -1.4391 H   0  0  0  0  0  0  0  0  0  0  0  0
    1.2600    3.9412   -2.4987 H   0  0  0  0  0  0  0  0  0  0  0  0
    1.3858    2.9945   -1.0270 H   0  0  0  0  0  0  0  0  0  0  0  0
   -2.0811    0.2192    1.6482 H   0  0  0  0  0  0  0  0  0  0  0  0
   -0.4697    0.7251    1.0710 H   0  0  0  0  0  0  0  0  0  0  0  0
   -1.4014   -1.3415   -2.1690 H   0  0  0  0  0  0  0  0  0  0  0  0
   -1.7528   -2.2299   -0.7420 H   0  0  0  0  0  0  0  0  0  0  0  0
   -0.5627    4.4899   -0.9798 H   0  0  0  0  0  0  0  0  0  0  0  0
   -1.1856    3.7012   -2.4104 H   0  0  0  0  0  0  0  0  0  0  0  0
    0.1959   -2.9314    0.6655 H   0  0  0  0  0  0  0  0  0  0  0  0
   -1.3954   -1.9469    1.4506 H   0  0  0  0  0  0  0  0  0  0  0  0
    2.0611   -0.7327    1.3548 H   0  0  0  0  0  0  0  0  0  0  0  0
    2.4845   -2.2667    0.6041 H   0  0  0  0  0  0  0  0  0  0  0  0
   -1.1925   -1.1595    3.5298 H   0  0  0  0  0  0  0  0  0  0  0  0
    0.2792   -0.2839    3.0989 H   0  0  0  0  0  0  0  0  0  0  0  0
    2.6365   -1.9330    3.2139 H   0  0  0  0  0  0  0  0  0  0  0  0
    2.1173   -3.4623    2.4881 H   0  0  0  0  0  0  0  0  0  0  0  0
    0.0142   -3.2654    3.2312 H   0  0  0  0  0  0  0  0  0  0  0  0
    0.7809   -2.2367    4.4415 H   0  0  0  0  0  0  0  0  0  0  0  0
  1  2  1  0  0  0  0
  1  3  1  0  0  0  0
  1  4  1  0  0  0  0
  1 18  1  6  0  0  0
  2  5  1  0  0  0  0
  2  6  1  0  0  0  0
  2 19  1  6  0  0  0
  3  7  1  0  0  0  0
  3 20  1  0  0  0  0
  3 21  1  0  0  0  0
  4  8  1  0  0  0  0
  4 22  1  0  0  0  0
  4 23  1  0  0  0  0
  5  9  1  0  0  0  0
  5 10  1  0  0  0  0
  5 24  1  6  0  0  0
  6 11  1  0  0  0  0
  6 25  1  0  0  0  0
  6 26  1  0  0  0  0
  7 12  1  0  0  0  0
  7 10  1  0  0  0  0
  7 27  1  6  0  0  0
  8 11  1  0  0  0  0
  8 28  1  0  0  0  0
  8 29  1  0  0  0  0
  9 13  1  0  0  0  0
  9 30  1  0  0  0  0
  9 31  1  0  0  0  0
 10 32  1  0  0  0  0
 10 33  1  0  0  0  0
 11 34  1  0  0  0  0
 11 35  1  0  0  0  0
 12 14  1  0  0  0  0
 12 13  1  0  0  0  0
 12 36  1  6  0  0  0
 13 15  1  0  0  0  0
 13 37  1  6  0  0  0
 14 16  1  0  0  0  0
 14 38  1  0  0  0  0
 14 39  1  0  0  0  0
 15 17  1  0  0  0  0
 15 40  1  0  0  0  0
 15 41  1  0  0  0  0
 16 17  1  0  0  0  0
 16 42  1  0  0  0  0
 16 43  1  0  0  0  0
 17 44  1  0  0  0  0
 17 45  1  0  0  0  0
M  CHG  2   1   1  13   1
M  END
>  <Column 1>
C1CCN2C[C@@H]3C[C@@H](C[N@@H+]4CCCC[C@H]34)[C@H]2C1 ZINC000000000721

>  <Column 2>
Decoy45

>  <MMFF94 Energy>
52.14

$$$$
Decoy46
 OpenBabel07082414533D

 41 44  0  0  0  0  0  0  0  0999 V2000
    0.0896    2.3311   -0.0000 S   0  0  0  0  0  0  0  0  0  0  0  0
   -0.3141    1.0904   -1.0908 N   0  0  0  0  0  0  0  0  0  0  0  0
   -0.4390    1.5316    1.5367 C   0  0  0  0  0  0  0  0  0  0  0  0
   -0.2700   -0.2294   -0.7499 C   0  0  0  0  0  0  0  0  0  0  0  0
   -0.5723    1.2203   -2.4222 C   0  0  0  0  0  0  0  0  0  0  0  0
   -0.0045    0.0864    1.7052 C   0  0  0  0  0  0  0  0  0  0  0  0
   -0.0133   -0.7534    0.6284 N   0  3  0  0  0  0  0  0  0  0  0  0
   -0.4630   -0.9871   -1.8086 N   0  0  0  0  0  0  0  0  0  0  0  0
   -0.6656   -0.1051   -2.8502 C   0  0  0  0  0  0  0  0  0  0  0  0
   -0.7203    2.3174   -3.2865 C   0  0  0  0  0  0  0  0  0  0  0  0
    0.2570   -0.4538    2.9891 C   0  0  0  0  0  0  0  0  0  0  0  0
    0.2037   -2.0808    0.7581 C   0  0  0  0  0  0  0  0  0  0  0  0
   -0.9284   -0.3723   -4.1986 C   0  0  0  0  0  0  0  0  0  0  0  0
   -0.9829    2.0346   -4.6321 C   0  0  0  0  0  0  0  0  0  0  0  0
    0.5603   -1.8174    3.0966 C   0  0  0  0  0  0  0  0  0  0  0  0
    0.2065    0.4152    4.2228 C   0  0  0  0  0  0  0  0  0  0  0  0
    0.4865   -2.6564    1.9885 C   0  0  0  0  0  0  0  0  0  0  0  0
   -1.0859    0.7106   -5.0738 C   0  0  0  0  0  0  0  0  0  0  0  0
   -1.1603    2.9664   -5.6184 O   0  0  0  0  0  0  0  0  0  0  0  0
    0.8119   -2.3672    4.3247 O   0  0  0  0  0  0  0  0  0  0  0  0
    0.7313   -4.1350    2.0864 C   0  0  0  0  0  0  0  0  0  0  0  0
   -1.0514    4.3372   -5.2538 C   0  0  0  0  0  0  0  0  0  0  0  0
    2.2099   -2.3390    4.6313 C   0  0  0  0  0  0  0  0  0  0  0  0
   -1.5080    1.5607    1.5725 H   0  0  0  0  0  0  0  0  0  0  0  0
    0.0342    2.0746    2.3280 H   0  0  0  0  0  0  0  0  0  0  0  0
   -0.6391    3.2879   -2.9451 H   0  0  0  0  0  0  0  0  0  0  0  0
    0.1579   -2.6819   -0.0795 H   0  0  0  0  0  0  0  0  0  0  0  0
   -1.0043   -1.3432   -4.5400 H   0  0  0  0  0  0  0  0  0  0  0  0
   -0.0387    1.4184    3.9427 H   0  0  0  0  0  0  0  0  0  0  0  0
    1.1607    0.4031    4.7069 H   0  0  0  0  0  0  0  0  0  0  0  0
   -0.5383    0.0399    4.8932 H   0  0  0  0  0  0  0  0  0  0  0  0
   -1.2830    0.5271   -6.0700 H   0  0  0  0  0  0  0  0  0  0  0  0
    0.6227   -4.5793    1.1191 H   0  0  0  0  0  0  0  0  0  0  0  0
    0.0230   -4.5699    2.7603 H   0  0  0  0  0  0  0  0  0  0  0  0
    1.7226   -4.3091    2.4496 H   0  0  0  0  0  0  0  0  0  0  0  0
   -1.2117    4.9495   -6.1165 H   0  0  0  0  0  0  0  0  0  0  0  0
   -0.0745    4.5249   -4.8597 H   0  0  0  0  0  0  0  0  0  0  0  0
   -1.7861    4.5682   -4.5110 H   0  0  0  0  0  0  0  0  0  0  0  0
    2.3726   -2.7747    5.5949 H   0  0  0  0  0  0  0  0  0  0  0  0
    2.5538   -1.3258    4.6353 H   0  0  0  0  0  0  0  0  0  0  0  0
    2.7483   -2.8954    3.8928 H   0  0  0  0  0  0  0  0  0  0  0  0
  1  2  1  0  0  0  0
  1  3  1  0  0  0  0
  2  4  1  0  0  0  0
  2  5  1  0  0  0  0
  3  6  1  0  0  0  0
  3 24  1  0  0  0  0
  3 25  1  0  0  0  0
  4  7  1  0  0  0  0
  4  8  2  0  0  0  0
  5  9  2  0  0  0  0
  5 10  1  0  0  0  0
  6 11  1  0  0  0  0
  6  7  2  0  0  0  0
  7 12  1  0  0  0  0
  8  9  1  0  0  0  0
  9 13  1  0  0  0  0
 10 14  2  0  0  0  0
 10 26  1  0  0  0  0
 11 15  2  0  0  0  0
 11 16  1  0  0  0  0
 12 17  2  0  0  0  0
 12 27  1  0  0  0  0
 13 18  2  0  0  0  0
 13 28  1  0  0  0  0
 14 19  1  0  0  0  0
 14 18  1  0  0  0  0
 15 20  1  0  0  0  0
 15 17  1  0  0  0  0
 16 29  1  0  0  0  0
 16 30  1  0  0  0  0
 16 31  1  0  0  0  0
 17 21  1  0  0  0  0
 18 32  1  0  0  0  0
 19 22  1  0  0  0  0
 20 23  1  0  0  0  0
 21 33  1  0  0  0  0
 21 34  1  0  0  0  0
 21 35  1  0  0  0  0
 22 36  1  0  0  0  0
 22 37  1  0  0  0  0
 22 38  1  0  0  0  0
 23 39  1  0  0  0  0
 23 40  1  0  0  0  0
 23 41  1  0  0  0  0
M  CHG  1   7   1
M  END
>  <Column 1>
COc1ccc2nc3n(c2c1)SCc1c(C)c(OC)c(C)c[n+]1-3 ZINC000000000728

>  <Column 2>
Decoy46

>  <MMFF94 Energy>
72.545

$$$$
Decoy47
 OpenBabel07082414533D

 44 46  0  0  1  0  0  0  0  0999 V2000
    2.6814   -1.1090   -1.2014 S   0  0  0  0  0  0  0  0  0  0  0  0
    2.5393   -0.5864    0.4958 C   0  0  0  0  0  0  0  0  0  0  0  0
    1.9873    0.2849   -2.0699 C   0  0  0  0  0  0  0  0  0  0  0  0
    1.7109    0.4801    0.8918 C   0  0  0  0  0  0  0  0  0  0  0  0
    3.2775   -1.2958    1.4552 C   0  0  0  0  0  0  0  0  0  0  0  0
    1.2061    1.2648   -1.4272 C   0  0  0  0  0  0  0  0  0  0  0  0
    2.2201    0.3667   -3.4508 C   0  0  0  0  0  0  0  0  0  0  0  0
    0.9163    1.2086   -0.0349 N   0  0  0  0  0  0  0  0  0  0  0  0
    1.7128    0.8558    2.2492 C   0  0  0  0  0  0  0  0  0  0  0  0
    3.2344   -0.9306    2.8002 C   0  0  0  0  0  0  0  0  0  0  0  0
    0.7286    2.3451   -2.1936 C   0  0  0  0  0  0  0  0  0  0  0  0
    1.7132    1.4304   -4.1958 C   0  0  0  0  0  0  0  0  0  0  0  0
   -0.5460    1.1400    0.2568 C   0  0  0  0  0  0  0  0  0  0  0  0
    2.4613    0.1542    3.1961 C   0  0  0  0  0  0  0  0  0  0  0  0
    0.9751    2.4251   -3.5655 C   0  0  0  0  0  0  0  0  0  0  0  0
   -1.1975   -0.2208   -0.1921 C   0  0  1  0  0  0  0  0  0  0  0  0
   -2.0448   -0.9295    0.9505 N   0  3  0  0  0  0  0  0  0  0  0  0
   -2.0526   -0.0111   -1.4514 C   0  0  0  0  0  0  0  0  0  0  0  0
   -2.5957   -2.2708    0.4415 C   0  0  0  0  0  0  0  0  0  0  0  0
   -3.2102   -0.0830    1.4449 C   0  0  0  0  0  0  0  0  0  0  0  0
   -1.1288   -1.2667    2.1371 C   0  0  0  0  0  0  0  0  0  0  0  0
    3.8587   -2.0966    1.1622 H   0  0  0  0  0  0  0  0  0  0  0  0
    2.7723   -0.3681   -3.9200 H   0  0  0  0  0  0  0  0  0  0  0  0
    1.1493    1.6664    2.5500 H   0  0  0  0  0  0  0  0  0  0  0  0
    3.7747   -1.4640    3.4992 H   0  0  0  0  0  0  0  0  0  0  0  0
    0.1860    3.0921   -1.7325 H   0  0  0  0  0  0  0  0  0  0  0  0
    1.8855    1.4791   -5.2122 H   0  0  0  0  0  0  0  0  0  0  0  0
   -1.0350    1.9393   -0.2598 H   0  0  0  0  0  0  0  0  0  0  0  0
   -0.6657    1.2187    1.3172 H   0  0  0  0  0  0  0  0  0  0  0  0
    2.4405    0.4404    4.1874 H   0  0  0  0  0  0  0  0  0  0  0  0
    0.6098    3.2216   -4.1107 H   0  0  0  0  0  0  0  0  0  0  0  0
   -0.3885   -0.8853   -0.4131 H   0  0  0  0  0  0  0  0  0  0  0  0
   -2.8605    0.6537   -1.2273 H   0  0  0  0  0  0  0  0  0  0  0  0
   -2.4447   -0.9519   -1.7770 H   0  0  0  0  0  0  0  0  0  0  0  0
   -1.4481    0.4110   -2.2268 H   0  0  0  0  0  0  0  0  0  0  0  0
   -3.2450   -2.0968   -0.3910 H   0  0  0  0  0  0  0  0  0  0  0  0
   -3.1420   -2.7525    1.2253 H   0  0  0  0  0  0  0  0  0  0  0  0
   -1.7837   -2.8969    0.1358 H   0  0  0  0  0  0  0  0  0  0  0  0
   -3.8521    0.1552    0.6226 H   0  0  0  0  0  0  0  0  0  0  0  0
   -2.8359    0.8207    1.8786 H   0  0  0  0  0  0  0  0  0  0  0  0
   -3.7615   -0.6301    2.1808 H   0  0  0  0  0  0  0  0  0  0  0  0
   -0.3076   -1.8617    1.7959 H   0  0  0  0  0  0  0  0  0  0  0  0
   -1.6833   -1.8120    2.8720 H   0  0  0  0  0  0  0  0  0  0  0  0
   -0.7577   -0.3612    2.5698 H   0  0  0  0  0  0  0  0  0  0  0  0
  1  2  1  0  0  0  0
  1  3  1  0  0  0  0
  2  4  2  0  0  0  0
  2  5  1  0  0  0  0
  3  6  2  0  0  0  0
  3  7  1  0  0  0  0
  4  8  1  0  0  0  0
  4  9  1  0  0  0  0
  5 10  2  0  0  0  0
  5 22  1  0  0  0  0
  6 11  1  0  0  0  0
  6  8  1  0  0  0  0
  7 12  2  0  0  0  0
  7 23  1  0  0  0  0
  8 13  1  0  0  0  0
  9 14  2  0  0  0  0
  9 24  1  0  0  0  0
 10 14  1  0  0  0  0
 10 25  1  0  0  0  0
 11 15  2  0  0  0  0
 11 26  1  0  0  0  0
 12 15  1  0  0  0  0
 12 27  1  0  0  0  0
 13 16  1  0  0  0  0
 13 28  1  0  0  0  0
 13 29  1  0  0  0  0
 14 30  1  0  0  0  0
 15 31  1  0  0  0  0
 16 17  1  0  0  0  0
 16 18  1  0  0  0  0
 16 32  1  6  0  0  0
 17 19  1  0  0  0  0
 17 20  1  0  0  0  0
 17 21  1  0  0  0  0
 18 33  1  0  0  0  0
 18 34  1  0  0  0  0
 18 35  1  0  0  0  0
 19 36  1  0  0  0  0
 19 37  1  0  0  0  0
 19 38  1  0  0  0  0
 20 39  1  0  0  0  0
 20 40  1  0  0  0  0
 20 41  1  0  0  0  0
 21 42  1  0  0  0  0
 21 43  1  0  0  0  0
 21 44  1  0  0  0  0
M  CHG  1  17   1
M  END
>  <Column 1>
C[C@@H](CN1c2ccccc2Sc2ccccc21)[N+](C)(C)C ZINC000000000761

>  <Column 2>
Decoy47

>  <MMFF94 Energy>
118.57

$$$$
Decoy48
 OpenBabel07082414533D

 36 37  0  0  1  0  0  0  0  0999 V2000
    0.9191   -2.4828    5.2462 Cl  0  0  0  0  0  0  0  0  0  0  0  0
    0.9548   -1.4556    3.8660 C   0  0  0  0  0  0  0  0  0  0  0  0
    0.6267   -1.9599    2.6115 C   0  0  0  0  0  0  0  0  0  0  0  0
    1.3074   -0.1167    4.0111 C   0  0  0  0  0  0  0  0  0  0  0  0
    0.6636   -1.1250    1.4887 C   0  0  0  0  0  0  0  0  0  0  0  0
    1.3329    0.7150    2.8893 C   0  0  0  0  0  0  0  0  0  0  0  0
    1.0260    0.2128    1.6205 C   0  0  0  0  0  0  0  0  0  0  0  0
    1.0673    1.1383    0.6191 O   0  0  0  0  0  0  0  0  0  0  0  0
    1.3462    0.7512   -0.7277 C   0  0  0  0  0  0  0  0  0  0  0  0
    0.2847   -0.0548   -1.5529 C   0  0  0  0  0  0  0  0  0  0  0  0
    1.5229    2.0896   -1.4836 C   0  0  0  0  0  0  0  0  0  0  0  0
    2.7214    0.0456   -0.7964 C   0  0  0  0  0  0  0  0  0  0  0  0
    0.6708   -0.9163   -2.3532 O   0  0  0  0  0  0  0  0  0  0  0  0
   -1.0508    0.3035   -1.4756 N   0  0  0  0  0  0  0  0  0  0  0  0
   -2.0551   -0.5421   -2.1584 C   0  0  1  0  0  0  0  0  0  0  0  0
   -1.6472    1.0866   -0.4194 C   0  0  0  0  0  0  0  0  0  0  0  0
   -2.4571   -1.8713   -1.4525 C   0  0  0  0  0  0  0  0  0  0  0  0
   -3.3249    0.2824   -2.3210 C   0  0  0  0  0  0  0  0  0  0  0  0
   -3.3124    1.5223   -0.9836 S   0  0  0  0  0  0  0  0  0  0  0  0
   -2.0018   -2.0463   -0.2843 O   0  0  0  0  0  0  0  0  0  0  0  0
   -3.2135   -2.6267   -2.1322 O   0  5  0  0  0  0  0  0  0  0  0  0
    0.3559   -2.9504    2.5087 H   0  0  0  0  0  0  0  0  0  0  0  0
    1.5484    0.2589    4.9416 H   0  0  0  0  0  0  0  0  0  0  0  0
    0.4212   -1.5026    0.5594 H   0  0  0  0  0  0  0  0  0  0  0  0
    1.5809    1.7109    2.9978 H   0  0  0  0  0  0  0  0  0  0  0  0
    0.5995    2.6301   -1.4724 H   0  0  0  0  0  0  0  0  0  0  0  0
    1.8086    1.8926   -2.4958 H   0  0  0  0  0  0  0  0  0  0  0  0
    2.2828    2.6717   -1.0054 H   0  0  0  0  0  0  0  0  0  0  0  0
    2.6660   -0.8940   -0.2876 H   0  0  0  0  0  0  0  0  0  0  0  0
    3.4617    0.6610   -0.3294 H   0  0  0  0  0  0  0  0  0  0  0  0
    2.9875   -0.1181   -1.8198 H   0  0  0  0  0  0  0  0  0  0  0  0
   -1.5865   -0.8364   -3.0742 H   0  0  0  0  0  0  0  0  0  0  0  0
   -1.0721    1.9719   -0.2452 H   0  0  0  0  0  0  0  0  0  0  0  0
   -1.6798    0.5383    0.4989 H   0  0  0  0  0  0  0  0  0  0  0  0
   -4.1869   -0.3456   -2.2347 H   0  0  0  0  0  0  0  0  0  0  0  0
   -3.3616    0.7507   -3.2824 H   0  0  0  0  0  0  0  0  0  0  0  0
  1  2  1  0  0  0  0
  2  3  2  0  0  0  0
  2  4  1  0  0  0  0
  3  5  1  0  0  0  0
  3 22  1  0  0  0  0
  4  6  2  0  0  0  0
  4 23  1  0  0  0  0
  5  7  2  0  0  0  0
  5 24  1  0  0  0  0
  6  7  1  0  0  0  0
  6 25  1  0  0  0  0
  7  8  1  0  0  0  0
  8  9  1  0  0  0  0
  9 10  1  0  0  0  0
  9 11  1  0  0  0  0
  9 12  1  0  0  0  0
 10 13  2  0  0  0  0
 10 14  1  0  0  0  0
 11 26  1  0  0  0  0
 11 27  1  0  0  0  0
 11 28  1  0  0  0  0
 12 29  1  0  0  0  0
 12 30  1  0  0  0  0
 12 31  1  0  0  0  0
 14 15  1  0  0  0  0
 14 16  1  0  0  0  0
 15 17  1  0  0  0  0
 15 18  1  0  0  0  0
 15 32  1  6  0  0  0
 16 19  1  0  0  0  0
 16 33  1  0  0  0  0
 16 34  1  0  0  0  0
 17 20  2  0  0  0  0
 17 21  1  0  0  0  0
 18 19  1  0  0  0  0
 18 35  1  0  0  0  0
 18 36  1  0  0  0  0
M  CHG  1  21  -1
M  END
>  <Column 1>
CC(C)(Oc1ccc(Cl)cc1)C(=O)N1CSC[C@@H]1C(=O)[O-] ZINC000000000777

>  <Column 2>
Decoy48

>  <MMFF94 Energy>
82.424

$$$$
Decoy49
 OpenBabel07082414533D

 28 28  0  0  1  0  0  0  0  0999 V2000
   -1.4747   -0.0000   -2.8586 S   0  0  2  0  0  0  0  0  0  0  0  0
   -2.4807    1.1017   -2.6933 O   0  0  0  0  0  0  0  0  0  0  0  0
   -0.7460   -0.2594   -1.2150 C   0  0  0  0  0  0  0  0  0  0  0  0
   -0.0085    0.7348   -3.6298 C   0  0  0  0  0  0  0  0  0  0  0  0
   -0.0884   -1.4626   -0.8898 C   0  0  0  0  0  0  0  0  0  0  0  0
   -0.8404    0.7621   -0.2586 C   0  0  0  0  0  0  0  0  0  0  0  0
    0.4639   -1.6087    0.3954 C   0  0  0  0  0  0  0  0  0  0  0  0
    0.0302   -2.6034   -1.8628 C   0  0  0  0  0  0  0  0  0  0  0  0
   -0.2674    0.6066    1.0041 C   0  0  0  0  0  0  0  0  0  0  0  0
    0.3523   -0.5952    1.3504 C   0  0  0  0  0  0  0  0  0  0  0  0
   -0.3679    1.6573    1.8774 O   0  0  0  0  0  0  0  0  0  0  0  0
    0.9223   -0.8633    2.5662 O   0  0  0  0  0  0  0  0  0  0  0  0
    0.8333    2.4305    1.8469 C   0  0  0  0  0  0  0  0  0  0  0  0
    0.0587   -0.5865    3.6687 C   0  0  0  0  0  0  0  0  0  0  0  0
   -0.2248    0.9757   -4.6496 H   0  0  0  0  0  0  0  0  0  0  0  0
    0.8018    0.0370   -3.5923 H   0  0  0  0  0  0  0  0  0  0  0  0
    0.2632    1.6255   -3.1028 H   0  0  0  0  0  0  0  0  0  0  0  0
   -1.3378    1.6360   -0.4907 H   0  0  0  0  0  0  0  0  0  0  0  0
    0.9606   -2.4804    0.6373 H   0  0  0  0  0  0  0  0  0  0  0  0
   -0.4373   -2.3341   -2.7868 H   0  0  0  0  0  0  0  0  0  0  0  0
   -0.4517   -3.4688   -1.4582 H   0  0  0  0  0  0  0  0  0  0  0  0
    1.0640   -2.8188   -2.0356 H   0  0  0  0  0  0  0  0  0  0  0  0
    0.7481    3.2490    2.5308 H   0  0  0  0  0  0  0  0  0  0  0  0
    0.9900    2.8071    0.8577 H   0  0  0  0  0  0  0  0  0  0  0  0
    1.6613    1.8144    2.1293 H   0  0  0  0  0  0  0  0  0  0  0  0
    0.5634   -0.8168    4.5837 H   0  0  0  0  0  0  0  0  0  0  0  0
   -0.8249   -1.1845    3.5885 H   0  0  0  0  0  0  0  0  0  0  0  0
   -0.2096    0.4493    3.6603 H   0  0  0  0  0  0  0  0  0  0  0  0
  1  2  2  1  0  0  0
  1  3  1  0  0  0  0
  1  4  1  0  0  0  0
  3  5  2  0  0  0  0
  3  6  1  0  0  0  0
  4 15  1  0  0  0  0
  4 16  1  0  0  0  0
  4 17  1  0  0  0  0
  5  7  1  0  0  0  0
  5  8  1  0  0  0  0
  6  9  2  0  0  0  0
  6 18  1  0  0  0  0
  7 10  2  0  0  0  0
  7 19  1  0  0  0  0
  8 20  1  0  0  0  0
  8 21  1  0  0  0  0
  8 22  1  0  0  0  0
  9 11  1  0  0  0  0
  9 10  1  0  0  0  0
 10 12  1  0  0  0  0
 11 13  1  0  0  0  0
 12 14  1  0  0  0  0
 13 23  1  0  0  0  0
 13 24  1  0  0  0  0
 13 25  1  0  0  0  0
 14 26  1  0  0  0  0
 14 27  1  0  0  0  0
 14 28  1  0  0  0  0
M  END
>  <Column 1>
COc1cc(C)c([S@@](C)=O)cc1OC ZINC000000000791

>  <Column 2>
Decoy49

>  <MMFF94 Energy>
50.056

$$$$
Decoy50
 OpenBabel07082414533D

 43 43  0  0  1  0  0  0  0  0999 V2000
    1.7041    2.8712   -1.3452 O   0  0  0  0  0  0  0  0  0  0  0  0
    1.4381    1.7241   -0.6459 C   0  0  0  0  0  0  0  0  0  0  0  0
    0.5390    3.2990   -2.0542 C   0  0  0  0  0  0  0  0  0  0  0  0
    0.8851    1.7897    0.6400 C   0  0  0  0  0  0  0  0  0  0  0  0
    1.7209    0.4738   -1.2097 C   0  0  0  0  0  0  0  0  0  0  0  0
    0.5847    2.9458    1.3111 O   0  0  0  0  0  0  0  0  0  0  0  0
    0.5190    0.6144    1.3060 C   0  0  0  0  0  0  0  0  0  0  0  0
    2.2728    0.2558   -2.4445 O   0  0  0  0  0  0  0  0  0  0  0  0
    1.3570   -0.6949   -0.5299 C   0  0  0  0  0  0  0  0  0  0  0  0
    1.6525    3.8946    1.3365 C   0  0  0  0  0  0  0  0  0  0  0  0
    0.7340   -0.6401    0.7236 C   0  0  0  0  0  0  0  0  0  0  0  0
    3.3842    1.0968   -2.7568 C   0  0  0  0  0  0  0  0  0  0  0  0
    0.3068   -1.9054    1.4285 C   0  0  0  0  0  0  0  0  0  0  0  0
   -1.1704   -2.3186    1.2245 C   0  0  2  0  0  0  0  0  0  0  0  0
   -1.5201   -2.4213   -0.2482 N   0  3  0  0  0  0  0  0  0  0  0  0
   -2.1673   -1.3509    1.9013 C   0  0  0  0  0  0  0  0  0  0  0  0
   -1.0071   -3.6205   -0.9583 C   0  0  0  0  0  0  0  0  0  0  0  0
   -3.5831   -1.8669    1.8698 C   0  0  0  0  0  0  0  0  0  0  0  0
   -4.5913   -1.2554    1.2348 C   0  0  0  0  0  0  0  0  0  0  0  0
    0.7600    4.1950   -2.5957 H   0  0  0  0  0  0  0  0  0  0  0  0
   -0.2521    3.4883   -1.3590 H   0  0  0  0  0  0  0  0  0  0  0  0
    0.2370    2.5339   -2.7386 H   0  0  0  0  0  0  0  0  0  0  0  0
    0.0842    0.6736    2.2401 H   0  0  0  0  0  0  0  0  0  0  0  0
    1.5511   -1.6128   -0.9598 H   0  0  0  0  0  0  0  0  0  0  0  0
    1.3429    4.7656    1.8754 H   0  0  0  0  0  0  0  0  0  0  0  0
    1.9106    4.1680    0.3347 H   0  0  0  0  0  0  0  0  0  0  0  0
    2.5037    3.4608    1.8184 H   0  0  0  0  0  0  0  0  0  0  0  0
    3.7488    0.8578   -3.7339 H   0  0  0  0  0  0  0  0  0  0  0  0
    4.1617    0.9419   -2.0382 H   0  0  0  0  0  0  0  0  0  0  0  0
    3.0747    2.1208   -2.7322 H   0  0  0  0  0  0  0  0  0  0  0  0
    0.4684   -1.7685    2.4773 H   0  0  0  0  0  0  0  0  0  0  0  0
    0.8924   -2.6914    0.9993 H   0  0  0  0  0  0  0  0  0  0  0  0
   -1.2622   -3.2775    1.6902 H   0  0  0  0  0  0  0  0  0  0  0  0
   -1.1437   -1.5969   -0.7163 H   0  0  0  0  0  0  0  0  0  0  0  0
   -2.5368   -2.4949   -0.2844 H   0  0  0  0  0  0  0  0  0  0  0  0
   -2.1331   -0.4108    1.3914 H   0  0  0  0  0  0  0  0  0  0  0  0
   -1.8796   -1.2522    2.9272 H   0  0  0  0  0  0  0  0  0  0  0  0
    0.0628   -3.6053   -0.9569 H   0  0  0  0  0  0  0  0  0  0  0  0
   -1.3626   -3.6166   -1.9675 H   0  0  0  0  0  0  0  0  0  0  0  0
   -1.3519   -4.5035   -0.4621 H   0  0  0  0  0  0  0  0  0  0  0  0
   -3.7885   -2.7466    2.3688 H   0  0  0  0  0  0  0  0  0  0  0  0
   -4.4215   -0.3739    0.7257 H   0  0  0  0  0  0  0  0  0  0  0  0
   -5.5380   -1.6657    1.2546 H   0  0  0  0  0  0  0  0  0  0  0  0
  1  2  1  0  0  0  0
  1  3  1  0  0  0  0
  2  4  2  0  0  0  0
  2  5  1  0  0  0  0
  3 20  1  0  0  0  0
  3 21  1  0  0  0  0
  3 22  1  0  0  0  0
  4  6  1  0  0  0  0
  4  7  1  0  0  0  0
  5  8  1  0  0  0  0
  5  9  2  0  0  0  0
  6 10  1  0  0  0  0
  7 11  2  0  0  0  0
  7 23  1  0  0  0  0
  8 12  1  0  0  0  0
  9 11  1  0  0  0  0
  9 24  1  0  0  0  0
 10 25  1  0  0  0  0
 10 26  1  0  0  0  0
 10 27  1  0  0  0  0
 11 13  1  0  0  0  0
 12 28  1  0  0  0  0
 12 29  1  0  0  0  0
 12 30  1  0  0  0  0
 13 14  1  0  0  0  0
 13 31  1  0  0  0  0
 13 32  1  0  0  0  0
 14 15  1  0  0  0  0
 14 16  1  0  0  0  0
 14 33  1  1  0  0  0
 15 17  1  0  0  0  0
 15 34  1  0  0  0  0
 15 35  1  0  0  0  0
 16 18  1  0  0  0  0
 16 36  1  0  0  0  0
 16 37  1  0  0  0  0
 17 38  1  0  0  0  0
 17 39  1  0  0  0  0
 17 40  1  0  0  0  0
 18 19  2  0  0  0  0
 18 41  1  0  0  0  0
 19 42  1  0  0  0  0
 19 43  1  0  0  0  0
M  CHG  1  15   1
M  END
>  <Column 1>
C=CC[C@H](Cc1cc(OC)c(OC)c(OC)c1)[NH2+]C ZINC000000000813

>  <Column 2>
Decoy50

>  <MMFF94 Energy>
92.731

$$$$
Decoy51
 OpenBabel07082414533D

 37 38  0  0  1  0  0  0  0  0999 V2000
    2.2599   -5.0669   -0.5421 O   0  0  0  0  0  0  0  0  0  0  0  0
    2.2707   -4.5414    0.6112 C   0  0  0  0  0  0  0  0  0  0  0  0
    3.2426   -4.4142    1.4129 O   0  5  0  0  0  0  0  0  0  0  0  0
    0.9000   -4.0273    1.1054 C   0  0  2  0  0  0  0  0  0  0  0  0
    0.6647   -2.5850    0.6862 C   0  0  0  0  0  0  0  0  0  0  0  0
    0.7323   -4.1984    2.6149 C   0  0  0  0  0  0  0  0  0  0  0  0
    1.5314   -1.5584    1.0816 C   0  0  0  0  0  0  0  0  0  0  0  0
   -0.4450   -2.2530   -0.1005 C   0  0  0  0  0  0  0  0  0  0  0  0
    1.2947   -0.2340    0.7027 C   0  0  0  0  0  0  0  0  0  0  0  0
   -0.6832   -0.9287   -0.4810 C   0  0  0  0  0  0  0  0  0  0  0  0
    0.1830    0.0996   -0.0829 C   0  0  0  0  0  0  0  0  0  0  0  0
   -0.0410    1.5412   -0.4986 C   0  0  2  0  0  0  0  0  0  0  0  0
   -1.3882    2.0809    0.0068 C   0  0  0  0  0  0  0  0  0  0  0  0
    0.0942    1.7083   -2.0259 C   0  0  0  0  0  0  0  0  0  0  0  0
   -1.5550    3.5096   -0.4753 C   0  0  0  0  0  0  0  0  0  0  0  0
   -0.0898    3.1682   -2.4447 C   0  0  0  0  0  0  0  0  0  0  0  0
   -1.8165    4.5437    0.2678 N   0  0  0  0  0  0  0  0  0  0  0  0
   -1.4264    3.7211   -1.9693 C   0  0  0  0  0  0  0  0  0  0  0  0
   -1.9226    4.1999    1.6170 O   0  0  0  0  0  0  0  0  0  0  0  0
    0.1530   -4.6320    0.6350 H   0  0  0  0  0  0  0  0  0  0  0  0
    1.4642   -3.6070    3.1244 H   0  0  0  0  0  0  0  0  0  0  0  0
    0.8629   -5.2284    2.8738 H   0  0  0  0  0  0  0  0  0  0  0  0
   -0.2475   -3.8796    2.9033 H   0  0  0  0  0  0  0  0  0  0  0  0
    2.3558   -1.7828    1.6604 H   0  0  0  0  0  0  0  0  0  0  0  0
   -1.0952   -2.9950   -0.4033 H   0  0  0  0  0  0  0  0  0  0  0  0
    1.9463    0.5070    1.0050 H   0  0  0  0  0  0  0  0  0  0  0  0
   -1.5065   -0.7054   -1.0619 H   0  0  0  0  0  0  0  0  0  0  0  0
    0.7252    2.1275   -0.0359 H   0  0  0  0  0  0  0  0  0  0  0  0
   -1.4062    2.0580    1.0764 H   0  0  0  0  0  0  0  0  0  0  0  0
   -2.1862    1.4752   -0.3689 H   0  0  0  0  0  0  0  0  0  0  0  0
   -0.6504    1.1108   -2.5090 H   0  0  0  0  0  0  0  0  0  0  0  0
    1.0763    1.3959   -2.3138 H   0  0  0  0  0  0  0  0  0  0  0  0
   -0.0471    3.2317   -3.5120 H   0  0  0  0  0  0  0  0  0  0  0  0
    0.6911    3.7468   -1.9970 H   0  0  0  0  0  0  0  0  0  0  0  0
   -1.4780    4.7673   -2.1876 H   0  0  0  0  0  0  0  0  0  0  0  0
   -2.2227    3.2132   -2.4722 H   0  0  0  0  0  0  0  0  0  0  0  0
   -2.1093    4.8599    2.2554 H   0  0  0  0  0  0  0  0  0  0  0  0
  1  2  2  0  0  0  0
  2  3  1  0  0  0  0
  2  4  1  0  0  0  0
  4  5  1  0  0  0  0
  4  6  1  0  0  0  0
  4 20  1  6  0  0  0
  5  7  2  0  0  0  0
  5  8  1  0  0  0  0
  6 21  1  0  0  0  0
  6 22  1  0  0  0  0
  6 23  1  0  0  0  0
  7  9  1  0  0  0  0
  7 24  1  0  0  0  0
  8 10  2  0  0  0  0
  8 25  1  0  0  0  0
  9 11  2  0  0  0  0
  9 26  1  0  0  0  0
 10 11  1  0  0  0  0
 10 27  1  0  0  0  0
 11 12  1  0  0  0  0
 12 13  1  0  0  0  0
 12 14  1  0  0  0  0
 12 28  1  1  0  0  0
 13 15  1  0  0  0  0
 13 29  1  0  0  0  0
 13 30  1  0  0  0  0
 14 16  1  0  0  0  0
 14 31  1  0  0  0  0
 14 32  1  0  0  0  0
 15 17  2  0  0  0  0
 15 18  1  0  0  0  0
 16 18  1  0  0  0  0
 16 33  1  0  0  0  0
 16 34  1  0  0  0  0
 17 19  1  0  0  0  0
 18 35  1  0  0  0  0
 18 36  1  0  0  0  0
 19 37  1  0  0  0  0
M  CHG  1   3  -1
M  END
>  <Column 1>
C[C@H](C(=O)[O-])c1ccc([C@H]2CCC/C(=N/O)C2)cc1 ZINC000000000845

>  <Column 2>
Decoy51

>  <MMFF94 Energy>
80.589

$$$$
Decoy52
 OpenBabel07082414533D

 27 28  0  0  1  0  0  0  0  0999 V2000
    4.9223   -0.0893   -1.2514 S   0  0  0  0  0  0  0  0  0  0  0  0
    3.3611   -0.1067   -0.5303 C   0  0  0  0  0  0  0  0  0  0  0  0
    5.3661   -1.4463   -0.3035 C   0  0  0  0  0  0  0  0  0  0  0  0
    2.4587    0.8142   -0.8756 O   0  0  0  0  0  0  0  0  0  0  0  0
    3.1755   -1.0368    0.3831 N   0  0  0  0  0  0  0  0  0  0  0  0
    4.3120   -1.8083    0.5054 C   0  0  0  0  0  0  0  0  0  0  0  0
    1.1269    0.6914   -0.5619 C   0  0  0  0  0  0  0  0  0  0  0  0
    0.4568    1.8669   -0.2206 C   0  0  0  0  0  0  0  0  0  0  0  0
    0.4180   -0.5050   -0.6653 C   0  0  0  0  0  0  0  0  0  0  0  0
   -0.9133    1.8410    0.0511 C   0  0  0  0  0  0  0  0  0  0  0  0
   -0.9528   -0.5288   -0.3937 C   0  0  0  0  0  0  0  0  0  0  0  0
   -1.6349    0.6414   -0.0279 C   0  0  0  0  0  0  0  0  0  0  0  0
   -3.1230    0.6253    0.2854 C   0  0  1  0  0  0  0  0  0  0  0  0
   -3.9464    0.1555   -0.9343 C   0  0  0  0  0  0  0  0  0  0  0  0
   -3.4184   -0.2036    1.5349 C   0  0  0  0  0  0  0  0  0  0  0  0
   -4.2937    1.0781   -1.7308 O   0  0  0  0  0  0  0  0  0  0  0  0
   -4.2106   -1.0811   -0.9934 O   0  5  0  0  0  0  0  0  0  0  0  0
    6.2827   -1.9196   -0.3342 H   0  0  0  0  0  0  0  0  0  0  0  0
    4.3688   -2.6043    1.1598 H   0  0  0  0  0  0  0  0  0  0  0  0
    0.9749    2.7579   -0.1688 H   0  0  0  0  0  0  0  0  0  0  0  0
    0.9050   -1.3718   -0.9420 H   0  0  0  0  0  0  0  0  0  0  0  0
   -1.3990    2.7132    0.3125 H   0  0  0  0  0  0  0  0  0  0  0  0
   -1.4702   -1.4190   -0.4632 H   0  0  0  0  0  0  0  0  0  0  0  0
   -3.4258    1.6291    0.4991 H   0  0  0  0  0  0  0  0  0  0  0  0
   -3.1297   -1.2198    1.3652 H   0  0  0  0  0  0  0  0  0  0  0  0
   -4.4654   -0.1617    1.7514 H   0  0  0  0  0  0  0  0  0  0  0  0
   -2.8669    0.1904    2.3629 H   0  0  0  0  0  0  0  0  0  0  0  0
  1  2  1  0  0  0  0
  1  3  1  0  0  0  0
  2  4  1  0  0  0  0
  2  5  2  0  0  0  0
  3  6  2  0  0  0  0
  3 18  1  0  0  0  0
  4  7  1  0  0  0  0
  5  6  1  0  0  0  0
  6 19  1  0  0  0  0
  7  8  2  0  0  0  0
  7  9  1  0  0  0  0
  8 10  1  0  0  0  0
  8 20  1  0  0  0  0
  9 11  2  0  0  0  0
  9 21  1  0  0  0  0
 10 12  2  0  0  0  0
 10 22  1  0  0  0  0
 11 12  1  0  0  0  0
 11 23  1  0  0  0  0
 12 13  1  0  0  0  0
 13 14  1  0  0  0  0
 13 15  1  0  0  0  0
 13 24  1  1  0  0  0
 14 16  2  0  0  0  0
 14 17  1  0  0  0  0
 15 25  1  0  0  0  0
 15 26  1  0  0  0  0
 15 27  1  0  0  0  0
M  CHG  1  17  -1
M  END
>  <Column 1>
C[C@H](C(=O)[O-])c1ccc(Oc2nccs2)cc1 ZINC000000000851

>  <Column 2>
Decoy52

>  <MMFF94 Energy>
65.423

$$$$
Decoy53
 OpenBabel07082414533D

 43 45  0  0  0  0  0  0  0  0999 V2000
   -0.5307    1.9470   -0.1769 O   0  0  0  0  0  0  0  0  0  0  0  0
    0.4949    1.5537   -1.0021 C   0  0  0  0  0  0  0  0  0  0  0  0
   -0.7073    3.3408    0.0363 C   0  0  0  0  0  0  0  0  0  0  0  0
    0.6900    0.1640   -1.1235 C   0  0  0  0  0  0  0  0  0  0  0  0
    1.3254    2.4310   -1.7145 C   0  0  0  0  0  0  0  0  0  0  0  0
    1.7051   -0.3278   -1.9503 C   0  0  0  0  0  0  0  0  0  0  0  0
   -0.1462   -0.7997   -0.3942 C   0  0  0  0  0  0  0  0  0  0  0  0
    2.3410    1.9345   -2.5378 C   0  0  0  0  0  0  0  0  0  0  0  0
    2.5245    0.5558   -2.6508 C   0  0  0  0  0  0  0  0  0  0  0  0
    0.0920   -1.1878    0.8738 C   0  0  0  0  0  0  0  0  0  0  0  0
    3.2140    2.6826   -3.2799 O   0  0  0  0  0  0  0  0  0  0  0  0
   -0.8128   -2.1874    1.5441 C   0  0  0  0  0  0  0  0  0  0  0  0
    1.3058   -0.7759    1.6675 C   0  0  0  0  0  0  0  0  0  0  0  0
    3.0790    4.0963   -3.2132 C   0  0  0  0  0  0  0  0  0  0  0  0
   -0.3988   -3.0513    2.4129 N   0  0  0  0  0  0  0  0  0  0  0  0
   -2.2637   -2.1739    1.2207 C   0  0  0  0  0  0  0  0  0  0  0  0
    1.4504   -1.5553    2.9699 C   0  0  0  0  0  0  0  0  0  0  0  0
    1.0222   -2.9987    2.7621 C   0  0  0  0  0  0  0  0  0  0  0  0
   -2.9567   -3.3757    1.1447 C   0  0  0  0  0  0  0  0  0  0  0  0
   -2.9841   -0.9906    1.0411 C   0  0  0  0  0  0  0  0  0  0  0  0
   -4.2810   -3.4691    0.8616 N   0  0  0  0  0  0  0  0  0  0  0  0
   -4.3465   -1.0574    0.7572 C   0  0  0  0  0  0  0  0  0  0  0  0
   -4.9428   -2.3066    0.6747 C   0  0  0  0  0  0  0  0  0  0  0  0
   -1.5360    3.4988    0.6945 H   0  0  0  0  0  0  0  0  0  0  0  0
   -0.8980    3.8234   -0.8994 H   0  0  0  0  0  0  0  0  0  0  0  0
    0.1791    3.7497    0.4744 H   0  0  0  0  0  0  0  0  0  0  0  0
    1.1861    3.4501   -1.6306 H   0  0  0  0  0  0  0  0  0  0  0  0
    1.8476   -1.3458   -2.0418 H   0  0  0  0  0  0  0  0  0  0  0  0
   -0.9623   -1.2021   -0.8811 H   0  0  0  0  0  0  0  0  0  0  0  0
    3.2731    0.1873   -3.2581 H   0  0  0  0  0  0  0  0  0  0  0  0
    1.2259    0.2657    1.8991 H   0  0  0  0  0  0  0  0  0  0  0  0
    2.1684   -0.9836    1.0694 H   0  0  0  0  0  0  0  0  0  0  0  0
    3.8183    4.5550   -3.8361 H   0  0  0  0  0  0  0  0  0  0  0  0
    3.2136    4.4201   -2.2023 H   0  0  0  0  0  0  0  0  0  0  0  0
    2.1035    4.3778   -3.5510 H   0  0  0  0  0  0  0  0  0  0  0  0
    0.8340   -1.1075    3.7212 H   0  0  0  0  0  0  0  0  0  0  0  0
    2.4742   -1.5338    3.2803 H   0  0  0  0  0  0  0  0  0  0  0  0
    1.5984   -3.4292    1.9700 H   0  0  0  0  0  0  0  0  0  0  0  0
    1.1835   -3.5478    3.6662 H   0  0  0  0  0  0  0  0  0  0  0  0
   -2.4336   -4.2492    1.3135 H   0  0  0  0  0  0  0  0  0  0  0  0
   -2.5119   -0.0762    1.1179 H   0  0  0  0  0  0  0  0  0  0  0  0
   -4.8987   -0.1977    0.6118 H   0  0  0  0  0  0  0  0  0  0  0  0
   -5.9508   -2.3506    0.4579 H   0  0  0  0  0  0  0  0  0  0  0  0
  1  2  1  0  0  0  0
  1  3  1  0  0  0  0
  2  4  2  0  0  0  0
  2  5  1  0  0  0  0
  3 24  1  0  0  0  0
  3 25  1  0  0  0  0
  3 26  1  0  0  0  0
  4  6  1  0  0  0  0
  4  7  1  0  0  0  0
  5  8  2  0  0  0  0
  5 27  1  0  0  0  0
  6  9  2  0  0  0  0
  6 28  1  0  0  0  0
  7 10  2  0  0  0  0
  7 29  1  0  0  0  0
  8 11  1  0  0  0  0
  8  9  1  0  0  0  0
  9 30  1  0  0  0  0
 10 12  1  0  0  0  0
 10 13  1  0  0  0  0
 11 14  1  0  0  0  0
 12 15  2  0  0  0  0
 12 16  1  0  0  0  0
 13 17  1  0  0  0  0
 13 31  1  0  0  0  0
 13 32  1  0  0  0  0
 14 33  1  0  0  0  0
 14 34  1  0  0  0  0
 14 35  1  0  0  0  0
 15 18  1  0  0  0  0
 16 19  2  0  0  0  0
 16 20  1  0  0  0  0
 17 18  1  0  0  0  0
 17 36  1  0  0  0  0
 17 37  1  0  0  0  0
 18 38  1  0  0  0  0
 18 39  1  0  0  0  0
 19 21  1  0  0  0  0
 19 40  1  0  0  0  0
 20 22  2  0  0  0  0
 20 41  1  0  0  0  0
 21 23  2  0  0  0  0
 22 23  1  0  0  0  0
 22 42  1  0  0  0  0
 23 43  1  0  0  0  0
M  END
>  <Column 1>
COc1ccc(/C=C2\CCCN=C2c2cccnc2)c(OC)c1 ZINC000000000860

>  <Column 2>
Decoy53

>  <MMFF94 Energy>
83.576

$$$$
Decoy54
 OpenBabel07082414533D

 30 30  0  0  1  0  0  0  0  0999 V2000
   -4.0065   -1.8198   -0.0909 O   0  0  0  0  0  0  0  0  0  0  0  0
   -3.2575   -2.2665    0.8207 C   0  0  0  0  0  0  0  0  0  0  0  0
   -3.5613   -2.7213    1.9603 O   0  5  0  0  0  0  0  0  0  0  0  0
   -1.7544   -2.2848    0.5145 C   0  0  0  0  0  0  0  0  0  0  0  0
   -1.2664   -1.2505   -0.5139 C   0  0  2  0  0  0  0  0  0  0  0  0
    0.1792   -1.5419   -0.9493 C   0  0  0  0  0  0  0  0  0  0  0  0
   -1.3930    0.1945    0.0018 C   0  0  0  0  0  0  0  0  0  0  0  0
    1.2138   -1.1916    0.1213 C   0  0  0  0  0  0  0  0  0  0  0  0
   -0.3614    0.5484    1.0760 C   0  0  0  0  0  0  0  0  0  0  0  0
    1.0748    0.2459    0.6333 C   0  0  2  0  0  0  0  0  0  0  0  0
    1.5089    1.1964   -0.3894 N   0  0  0  0  0  0  0  0  0  0  0  0
    2.1614    2.3678   -0.0808 C   0  0  0  0  0  0  0  0  0  0  0  0
    2.5493    2.6778    1.0400 O   0  0  0  0  0  0  0  0  0  0  0  0
    2.3510    3.2716   -1.2692 C   0  0  0  0  0  0  0  0  0  0  0  0
   -1.5070   -3.2576    0.1440 H   0  0  0  0  0  0  0  0  0  0  0  0
   -1.2683   -2.0315    1.4334 H   0  0  0  0  0  0  0  0  0  0  0  0
   -1.9063   -1.3412   -1.3667 H   0  0  0  0  0  0  0  0  0  0  0  0
    0.3917   -0.9691   -1.8277 H   0  0  0  0  0  0  0  0  0  0  0  0
    0.2511   -2.5944   -1.1282 H   0  0  0  0  0  0  0  0  0  0  0  0
   -2.3714    0.3226    0.4156 H   0  0  0  0  0  0  0  0  0  0  0  0
   -1.2182    0.8437   -0.8306 H   0  0  0  0  0  0  0  0  0  0  0  0
    2.1917   -1.3130   -0.2956 H   0  0  0  0  0  0  0  0  0  0  0  0
    1.0524   -1.8465    0.9519 H   0  0  0  0  0  0  0  0  0  0  0  0
   -0.5755   -0.0191    1.9575 H   0  0  0  0  0  0  0  0  0  0  0  0
   -0.4304    1.6004    1.2589 H   0  0  0  0  0  0  0  0  0  0  0  0
    1.7068    0.3503    1.4904 H   0  0  0  0  0  0  0  0  0  0  0  0
    1.3274    0.9904   -1.3348 H   0  0  0  0  0  0  0  0  0  0  0  0
    1.9400    2.8060   -2.1405 H   0  0  0  0  0  0  0  0  0  0  0  0
    3.3954    3.4495   -1.4190 H   0  0  0  0  0  0  0  0  0  0  0  0
    1.8524    4.2018   -1.0930 H   0  0  0  0  0  0  0  0  0  0  0  0
  1  2  2  0  0  0  0
  2  3  1  0  0  0  0
  2  4  1  0  0  0  0
  4  5  1  0  0  0  0
  4 15  1  0  0  0  0
  4 16  1  0  0  0  0
  5  6  1  0  0  0  0
  5  7  1  0  0  0  0
  5 17  1  6  0  0  0
  6  8  1  0  0  0  0
  6 18  1  0  0  0  0
  6 19  1  0  0  0  0
  7  9  1  0  0  0  0
  7 20  1  0  0  0  0
  7 21  1  0  0  0  0
  8 10  1  0  0  0  0
  8 22  1  0  0  0  0
  8 23  1  0  0  0  0
  9 10  1  0  0  0  0
  9 24  1  0  0  0  0
  9 25  1  0  0  0  0
 10 11  1  0  0  0  0
 10 26  1  1  0  0  0
 11 12  1  0  0  0  0
 11 27  1  0  0  0  0
 12 13  2  0  0  0  0
 12 14  1  0  0  0  0
 14 28  1  0  0  0  0
 14 29  1  0  0  0  0
 14 30  1  0  0  0  0
M  CHG  1   3  -1
M  END
>  <Column 1>
CC(=O)NC1CCC(CC(=O)[O-])CC1 ZINC000000000880

>  <Column 2>
Decoy54

>  <MMFF94 Energy>
-12.982

$$$$
Decoy55
 OpenBabel07082414533D

 34 35  0  0  0  0  0  0  0  0999 V2000
    0.9634   -0.3502    1.2262 O   0  0  0  0  0  0  0  0  0  0  0  0
    0.3873   -0.2589    0.1440 C   0  0  0  0  0  0  0  0  0  0  0  0
   -0.6373    0.6295    0.0336 N   0  0  0  0  0  0  0  0  0  0  0  0
    0.7136   -1.0560   -1.1059 C   0  0  0  0  0  0  0  0  0  0  0  0
   -1.3566    0.8301   -1.1011 C   0  0  0  0  0  0  0  0  0  0  0  0
   -0.0101   -0.8527   -2.2442 N   0  5  0  0  0  0  0  0  0  0  0  0
    1.7287   -1.9504   -1.0322 C   0  0  0  0  0  0  0  0  0  0  0  0
   -1.0114    0.0247   -2.3291 C   0  0  0  0  0  0  0  0  0  0  0  0
   -2.3657    1.7181   -1.1773 C   0  0  0  0  0  0  0  0  0  0  0  0
    2.6137   -2.3119    0.0774 C   0  0  0  0  0  0  0  0  0  0  0  0
   -1.6600    0.2016   -3.3624 O   0  0  0  0  0  0  0  0  0  0  0  0
   -2.8929    2.6293   -0.0990 C   0  0  0  0  0  0  0  0  0  0  0  0
    3.8269   -1.6406    0.2576 C   0  0  0  0  0  0  0  0  0  0  0  0
    2.2673   -3.3539    0.9432 C   0  0  0  0  0  0  0  0  0  0  0  0
   -4.3603    2.3075    0.1863 C   0  0  0  0  0  0  0  0  0  0  0  0
   -2.7386    4.0893   -0.5265 C   0  0  0  0  0  0  0  0  0  0  0  0
    4.6868   -2.0084    1.2945 C   0  0  0  0  0  0  0  0  0  0  0  0
    3.1272   -3.7217    1.9802 C   0  0  0  0  0  0  0  0  0  0  0  0
    4.3375   -3.0501    2.1543 C   0  0  0  0  0  0  0  0  0  0  0  0
   -0.8727    1.1616    0.8278 H   0  0  0  0  0  0  0  0  0  0  0  0
    1.9093   -2.4652   -1.9082 H   0  0  0  0  0  0  0  0  0  0  0  0
   -2.8392    1.7831   -2.0920 H   0  0  0  0  0  0  0  0  0  0  0  0
   -2.3289    2.4745    0.7970 H   0  0  0  0  0  0  0  0  0  0  0  0
    4.0878   -0.8705   -0.3780 H   0  0  0  0  0  0  0  0  0  0  0  0
    1.3730   -3.8529    0.8154 H   0  0  0  0  0  0  0  0  0  0  0  0
   -4.9376    2.4579   -0.7019 H   0  0  0  0  0  0  0  0  0  0  0  0
   -4.7226    2.9512    0.9605 H   0  0  0  0  0  0  0  0  0  0  0  0
   -4.4475    1.2882    0.5000 H   0  0  0  0  0  0  0  0  0  0  0  0
   -3.2979    4.2596   -1.4226 H   0  0  0  0  0  0  0  0  0  0  0  0
   -1.7052    4.3013   -0.7054 H   0  0  0  0  0  0  0  0  0  0  0  0
   -3.1047    4.7287    0.2494 H   0  0  0  0  0  0  0  0  0  0  0  0
    5.5808   -1.5096    1.4248 H   0  0  0  0  0  0  0  0  0  0  0  0
    2.8673   -4.4904    2.6178 H   0  0  0  0  0  0  0  0  0  0  0  0
    4.9743   -3.3238    2.9189 H   0  0  0  0  0  0  0  0  0  0  0  0
  1  2  2  0  0  0  0
  2  3  1  0  0  0  0
  2  4  1  0  0  0  0
  3  5  1  0  0  0  0
  3 20  1  0  0  0  0
  4  6  1  0  0  0  0
  4  7  2  0  0  0  0
  5  8  1  0  0  0  0
  5  9  2  0  0  0  0
  6  8  1  0  0  0  0
  7 10  1  0  0  0  0
  7 21  1  0  0  0  0
  8 11  2  0  0  0  0
  9 12  1  0  0  0  0
  9 22  1  0  0  0  0
 10 13  2  0  0  0  0
 10 14  1  0  0  0  0
 12 15  1  0  0  0  0
 12 16  1  0  0  0  0
 12 23  1  0  0  0  0
 13 17  1  0  0  0  0
 13 24  1  0  0  0  0
 14 18  2  0  0  0  0
 14 25  1  0  0  0  0
 15 26  1  0  0  0  0
 15 27  1  0  0  0  0
 15 28  1  0  0  0  0
 16 29  1  0  0  0  0
 16 30  1  0  0  0  0
 16 31  1  0  0  0  0
 17 19  2  0  0  0  0
 17 32  1  0  0  0  0
 18 19  1  0  0  0  0
 18 33  1  0  0  0  0
 19 34  1  0  0  0  0
M  CHG  1   6  -1
M  END
>  <Column 1>
CC(C)/C=c1\[nH]c(=O)/c(=C\c2ccccc2)[n-]c1=O ZINC000000000889

>  <Column 2>
Decoy55

>  <MMFF94 Energy>
71.626

$$$$
Decoy56
 OpenBabel07082414533D

 48 48  0  0  0  0  0  0  0  0999 V2000
   -0.3617   -0.0904   -1.2664 O   0  0  0  0  0  0  0  0  0  0  0  0
    0.4903   -0.4698   -0.2663 C   0  0  0  0  0  0  0  0  0  0  0  0
   -1.5179   -0.9080   -1.4769 C   0  0  0  0  0  0  0  0  0  0  0  0
    0.3669   -1.6056    0.5298 C   0  0  0  0  0  0  0  0  0  0  0  0
    1.5691    0.3894   -0.0583 C   0  0  0  0  0  0  0  0  0  0  0  0
   -2.3350   -0.2400   -2.5882 C   0  0  0  0  0  0  0  0  0  0  0  0
    1.3090   -1.8791    1.5293 C   0  0  0  0  0  0  0  0  0  0  0  0
    2.5163    0.1286    0.9357 C   0  0  0  0  0  0  0  0  0  0  0  0
   -2.4550    1.2680   -2.3408 N   0  3  0  0  0  0  0  0  0  0  0  0
    1.0568   -3.0255    2.2339 O   0  0  0  0  0  0  0  0  0  0  0  0
    2.3829   -1.0092    1.7330 C   0  0  0  0  0  0  0  0  0  0  0  0
    3.5111    1.0636    1.0226 O   0  0  0  0  0  0  0  0  0  0  0  0
   -2.7397    2.0200   -3.6232 C   0  0  0  0  0  0  0  0  0  0  0  0
   -3.3084    1.6454   -1.1474 C   0  0  0  0  0  0  0  0  0  0  0  0
    1.9979   -3.3991    3.2408 C   0  0  0  0  0  0  0  0  0  0  0  0
    4.5442    0.8370    1.9818 C   0  0  0  0  0  0  0  0  0  0  0  0
   -2.5719    3.5170   -3.4410 C   0  0  0  0  0  0  0  0  0  0  0  0
   -4.7862    1.3878   -1.3733 C   0  0  0  0  0  0  0  0  0  0  0  0
    1.5294   -4.7047    3.8576 C   0  0  0  0  0  0  0  0  0  0  0  0
    5.5426    1.9753    1.8719 C   0  0  0  0  0  0  0  0  0  0  0  0
   -2.0963   -0.9666   -0.5786 H   0  0  0  0  0  0  0  0  0  0  0  0
   -1.2395   -1.9043   -1.7504 H   0  0  0  0  0  0  0  0  0  0  0  0
   -0.4249   -2.2508    0.3821 H   0  0  0  0  0  0  0  0  0  0  0  0
    1.6695    1.2307   -0.6475 H   0  0  0  0  0  0  0  0  0  0  0  0
   -3.3140   -0.6711   -2.6118 H   0  0  0  0  0  0  0  0  0  0  0  0
   -1.8377   -0.3968   -3.5225 H   0  0  0  0  0  0  0  0  0  0  0  0
   -1.5362    1.5926   -2.0394 H   0  0  0  0  0  0  0  0  0  0  0  0
    3.0761   -1.2074    2.4714 H   0  0  0  0  0  0  0  0  0  0  0  0
   -3.7450    1.8178   -3.9286 H   0  0  0  0  0  0  0  0  0  0  0  0
   -2.0420    1.6926   -4.3655 H   0  0  0  0  0  0  0  0  0  0  0  0
   -3.1705    2.6869   -0.9448 H   0  0  0  0  0  0  0  0  0  0  0  0
   -2.9982    1.0352   -0.3250 H   0  0  0  0  0  0  0  0  0  0  0  0
    2.0468   -2.6391    3.9924 H   0  0  0  0  0  0  0  0  0  0  0  0
    2.9721   -3.5173    2.8143 H   0  0  0  0  0  0  0  0  0  0  0  0
    5.0308   -0.0940    1.7786 H   0  0  0  0  0  0  0  0  0  0  0  0
    4.1332    0.7964    2.9689 H   0  0  0  0  0  0  0  0  0  0  0  0
   -3.2618    3.8658   -2.7012 H   0  0  0  0  0  0  0  0  0  0  0  0
   -2.7636    4.0130   -4.3695 H   0  0  0  0  0  0  0  0  0  0  0  0
   -1.5720    3.7278   -3.1238 H   0  0  0  0  0  0  0  0  0  0  0  0
   -5.1311    1.9842   -2.1920 H   0  0  0  0  0  0  0  0  0  0  0  0
   -5.3322    1.6449   -0.4898 H   0  0  0  0  0  0  0  0  0  0  0  0
   -4.9376    0.3526   -1.5975 H   0  0  0  0  0  0  0  0  0  0  0  0
    0.5552   -4.5706    4.2793 H   0  0  0  0  0  0  0  0  0  0  0  0
    2.2127   -5.0018    4.6256 H   0  0  0  0  0  0  0  0  0  0  0  0
    1.4901   -5.4620    3.1027 H   0  0  0  0  0  0  0  0  0  0  0  0
    5.9443    2.0029    0.8805 H   0  0  0  0  0  0  0  0  0  0  0  0
    6.3356    1.8232    2.5740 H   0  0  0  0  0  0  0  0  0  0  0  0
    5.0516    2.9021    2.0837 H   0  0  0  0  0  0  0  0  0  0  0  0
  1  2  1  0  0  0  0
  1  3  1  0  0  0  0
  2  4  2  0  0  0  0
  2  5  1  0  0  0  0
  3  6  1  0  0  0  0
  3 21  1  0  0  0  0
  3 22  1  0  0  0  0
  4  7  1  0  0  0  0
  4 23  1  0  0  0  0
  5  8  2  0  0  0  0
  5 24  1  0  0  0  0
  6  9  1  0  0  0  0
  6 25  1  0  0  0  0
  6 26  1  0  0  0  0
  7 10  1  0  0  0  0
  7 11  2  0  0  0  0
  8 12  1  0  0  0  0
  8 11  1  0  0  0  0
  9 13  1  0  0  0  0
  9 14  1  0  0  0  0
  9 27  1  0  0  0  0
 10 15  1  0  0  0  0
 11 28  1  0  0  0  0
 12 16  1  0  0  0  0
 13 17  1  0  0  0  0
 13 29  1  0  0  0  0
 13 30  1  0  0  0  0
 14 18  1  0  0  0  0
 14 31  1  0  0  0  0
 14 32  1  0  0  0  0
 15 19  1  0  0  0  0
 15 33  1  0  0  0  0
 15 34  1  0  0  0  0
 16 20  1  0  0  0  0
 16 35  1  0  0  0  0
 16 36  1  0  0  0  0
 17 37  1  0  0  0  0
 17 38  1  0  0  0  0
 17 39  1  0  0  0  0
 18 40  1  0  0  0  0
 18 41  1  0  0  0  0
 18 42  1  0  0  0  0
 19 43  1  0  0  0  0
 19 44  1  0  0  0  0
 19 45  1  0  0  0  0
 20 46  1  0  0  0  0
 20 47  1  0  0  0  0
 20 48  1  0  0  0  0
M  CHG  1   9   1
M  END
>  <Column 1>
CCOc1cc(OCC)cc(OCC[NH+](CC)CC)c1 ZINC000000000916

>  <Column 2>
Decoy56

>  <MMFF94 Energy>
39.971

$$$$
Decoy57
 OpenBabel07082414533D

 37 38  0  0  0  0  0  0  0  0999 V2000
    2.3876    0.7070   -0.2651 N   0  3  0  0  0  0  0  0  0  0  0  0
    3.4102   -0.1126    0.1247 C   0  0  0  0  0  0  0  0  0  0  0  0
    2.2546    1.9436    0.2869 C   0  0  0  0  0  0  0  0  0  0  0  0
    1.3996    0.3112   -1.3148 C   0  0  0  0  0  0  0  0  0  0  0  0
    4.3012    0.3297    1.1179 C   0  0  0  0  0  0  0  0  0  0  0  0
    3.6314   -1.4626   -0.4986 C   0  0  0  0  0  0  0  0  0  0  0  0
    3.1207    2.3985    1.2703 C   0  0  0  0  0  0  0  0  0  0  0  0
    0.0461    0.0637   -0.7343 C   0  0  0  0  0  0  0  0  0  0  0  0
    4.1531    1.5829    1.6943 C   0  0  0  0  0  0  0  0  0  0  0  0
   -0.9639    1.0057   -0.7451 C   0  0  0  0  0  0  0  0  0  0  0  0
   -0.2600   -1.1065   -0.0711 C   0  0  0  0  0  0  0  0  0  0  0  0
   -2.1383    0.8275   -0.1360 N   0  0  0  0  0  0  0  0  0  0  0  0
   -0.8170    2.2333   -1.3945 N   0  0  0  0  0  0  0  0  0  0  0  0
   -1.4337   -1.3343    0.5376 N   0  0  0  0  0  0  0  0  0  0  0  0
   -2.3418   -0.3462    0.4888 C   0  0  0  0  0  0  0  0  0  0  0  0
   -3.6737   -0.5732    1.1512 C   0  0  0  0  0  0  0  0  0  0  0  0
   -4.7857   -0.9009    0.1532 C   0  0  0  0  0  0  0  0  0  0  0  0
   -4.6073   -2.2548   -0.5197 C   0  0  0  0  0  0  0  0  0  0  0  0
    1.4903    2.5583   -0.0341 H   0  0  0  0  0  0  0  0  0  0  0  0
    1.7409   -0.5834   -1.7925 H   0  0  0  0  0  0  0  0  0  0  0  0
    1.3195    1.1144   -2.0172 H   0  0  0  0  0  0  0  0  0  0  0  0
    5.0734   -0.2840    1.4214 H   0  0  0  0  0  0  0  0  0  0  0  0
    2.8722   -1.6465   -1.2299 H   0  0  0  0  0  0  0  0  0  0  0  0
    3.5870   -2.2169    0.2591 H   0  0  0  0  0  0  0  0  0  0  0  0
    4.5924   -1.4853   -0.9686 H   0  0  0  0  0  0  0  0  0  0  0  0
    2.9955    3.3368    1.6814 H   0  0  0  0  0  0  0  0  0  0  0  0
    4.8042    1.9016    2.4289 H   0  0  0  0  0  0  0  0  0  0  0  0
    0.4553   -1.8498   -0.0414 H   0  0  0  0  0  0  0  0  0  0  0  0
    0.0204    2.4426   -1.8679 H   0  0  0  0  0  0  0  0  0  0  0  0
   -1.5509    2.8894   -1.3789 H   0  0  0  0  0  0  0  0  0  0  0  0
   -3.9448    0.3132    1.6858 H   0  0  0  0  0  0  0  0  0  0  0  0
   -3.5690   -1.4148    1.8036 H   0  0  0  0  0  0  0  0  0  0  0  0
   -4.7978   -0.1441   -0.6031 H   0  0  0  0  0  0  0  0  0  0  0  0
   -5.7043   -0.9364    0.7008 H   0  0  0  0  0  0  0  0  0  0  0  0
   -3.6952   -2.2576   -1.0792 H   0  0  0  0  0  0  0  0  0  0  0  0
   -5.4305   -2.4369   -1.1786 H   0  0  0  0  0  0  0  0  0  0  0  0
   -4.5708   -3.0215    0.2257 H   0  0  0  0  0  0  0  0  0  0  0  0
  1  2  2  0  0  0  0
  1  3  1  0  0  0  0
  1  4  1  0  0  0  0
  2  5  1  0  0  0  0
  2  6  1  0  0  0  0
  3  7  2  0  0  0  0
  3 19  1  0  0  0  0
  4  8  1  0  0  0  0
  4 20  1  0  0  0  0
  4 21  1  0  0  0  0
  5  9  2  0  0  0  0
  5 22  1  0  0  0  0
  6 23  1  0  0  0  0
  6 24  1  0  0  0  0
  6 25  1  0  0  0  0
  7  9  1  0  0  0  0
  7 26  1  0  0  0  0
  8 10  2  0  0  0  0
  8 11  1  0  0  0  0
  9 27  1  0  0  0  0
 10 12  1  0  0  0  0
 10 13  1  0  0  0  0
 11 14  2  0  0  0  0
 11 28  1  0  0  0  0
 12 15  2  0  0  0  0
 13 29  1  0  0  0  0
 13 30  1  0  0  0  0
 14 15  1  0  0  0  0
 15 16  1  0  0  0  0
 16 17  1  0  0  0  0
 16 31  1  0  0  0  0
 16 32  1  0  0  0  0
 17 18  1  0  0  0  0
 17 33  1  0  0  0  0
 17 34  1  0  0  0  0
 18 35  1  0  0  0  0
 18 36  1  0  0  0  0
 18 37  1  0  0  0  0
M  CHG  1   1   1
M  END
>  <Column 1>
CCCc1ncc(C[n+]2ccccc2C)c(N)n1 ZINC000000000934

>  <Column 2>
Decoy57

>  <MMFF94 Energy>
-18.639

$$$$
Decoy58
 OpenBabel07082414533D

 22 23  0  0  0  0  0  0  0  0999 V2000
   -0.8498    5.0111    3.0236 S   0  0  0  0  0  0  0  0  0  0  0  0
    0.1847    3.8262    2.4602 C   0  0  0  0  0  0  0  0  0  0  0  0
    1.9284    3.9005    2.6652 S   0  0  0  0  0  0  0  0  0  0  0  0
   -0.2432    2.6093    1.7406 C   0  0  0  0  0  0  0  0  0  0  0  0
    2.3763    2.1513    1.7103 S   0  0  0  0  0  0  0  0  0  0  0  0
    0.7302    1.7752    1.3580 C   0  0  0  0  0  0  0  0  0  0  0  0
    0.4514    0.5318    0.6343 C   0  0  0  0  0  0  0  0  0  0  0  0
   -0.0329    0.5699   -0.6803 C   0  0  0  0  0  0  0  0  0  0  0  0
    0.6404   -0.7116    1.2483 C   0  0  0  0  0  0  0  0  0  0  0  0
   -0.3176   -0.6139   -1.3724 C   0  0  0  0  0  0  0  0  0  0  0  0
    0.3542   -1.8908    0.5549 C   0  0  0  0  0  0  0  0  0  0  0  0
   -0.1246   -1.8499   -0.7564 C   0  0  0  0  0  0  0  0  0  0  0  0
   -0.3631   -3.0744   -1.3154 O   0  0  0  0  0  0  0  0  0  0  0  0
   -0.8304   -3.0896   -2.6583 C   0  0  0  0  0  0  0  0  0  0  0  0
   -1.2372    2.4135    1.5440 H   0  0  0  0  0  0  0  0  0  0  0  0
   -0.1813    1.4802   -1.1434 H   0  0  0  0  0  0  0  0  0  0  0  0
    0.9926   -0.7579    2.2172 H   0  0  0  0  0  0  0  0  0  0  0  0
   -0.6712   -0.5713   -2.3410 H   0  0  0  0  0  0  0  0  0  0  0  0
    0.4983   -2.8022    1.0171 H   0  0  0  0  0  0  0  0  0  0  0  0
   -0.9765   -4.1016   -2.9737 H   0  0  0  0  0  0  0  0  0  0  0  0
   -0.1084   -2.6191   -3.2925 H   0  0  0  0  0  0  0  0  0  0  0  0
   -1.7579   -2.5596   -2.7192 H   0  0  0  0  0  0  0  0  0  0  0  0
  1  2  2  0  0  0  0
  2  3  1  0  0  0  0
  2  4  1  0  0  0  0
  3  5  1  0  0  0  0
  4  6  2  0  0  0  0
  4 15  1  0  0  0  0
  5  6  1  0  0  0  0
  6  7  1  0  0  0  0
  7  8  2  0  0  0  0
  7  9  1  0  0  0  0
  8 10  1  0  0  0  0
  8 16  1  0  0  0  0
  9 11  2  0  0  0  0
  9 17  1  0  0  0  0
 10 12  2  0  0  0  0
 10 18  1  0  0  0  0
 11 12  1  0  0  0  0
 11 19  1  0  0  0  0
 12 13  1  0  0  0  0
 13 14  1  0  0  0  0
 14 20  1  0  0  0  0
 14 21  1  0  0  0  0
 14 22  1  0  0  0  0
M  END
>  <Column 1>
COc1ccc(-c2cc(=S)ss2)cc1 ZINC000000000949

>  <Column 2>
Decoy58

>  <MMFF94 Energy>
25.057

$$$$
Decoy59
 OpenBabel07082414533D

 40 42  0  0  0  0  0  0  0  0999 V2000
   -0.9623   -3.9406    2.7135 O   0  0  0  0  0  0  0  0  0  0  0  0
   -1.2261   -2.9179    1.8459 C   0  0  0  0  0  0  0  0  0  0  0  0
   -1.3971   -5.2387    2.3283 C   0  0  0  0  0  0  0  0  0  0  0  0
   -1.8467   -3.0329    0.6045 C   0  0  0  0  0  0  0  0  0  0  0  0
   -0.8216   -1.6577    2.2868 C   0  0  0  0  0  0  0  0  0  0  0  0
   -2.0522   -1.8951   -0.1875 C   0  0  0  0  0  0  0  0  0  0  0  0
   -1.0300   -0.5213    1.4974 C   0  0  0  0  0  0  0  0  0  0  0  0
   -1.6374   -0.6195    0.2355 C   0  0  0  0  0  0  0  0  0  0  0  0
   -1.8637    0.5586   -0.6176 C   0  0  0  0  0  0  0  0  0  0  0  0
   -3.1269    0.6803   -1.0903 N   0  0  0  0  0  0  0  0  0  0  0  0
   -0.9208    1.5309   -0.9556 C   0  0  0  0  0  0  0  0  0  0  0  0
   -3.4605    1.7544   -1.8588 N   0  0  0  0  0  0  0  0  0  0  0  0
   -1.2520    2.6168   -1.7057 N   0  0  0  0  0  0  0  0  0  0  0  0
    0.5050    1.4891   -0.5799 C   0  0  0  0  0  0  0  0  0  0  0  0
   -2.5268    2.6886   -2.1249 C   0  0  0  0  0  0  0  0  0  0  0  0
    1.1077    2.5911    0.0478 C   0  0  0  0  0  0  0  0  0  0  0  0
    1.3131    0.3716   -0.8502 C   0  0  0  0  0  0  0  0  0  0  0  0
   -2.9221    3.8446   -2.9848 C   0  0  0  0  0  0  0  0  0  0  0  0
    2.4563    2.5624    0.4167 C   0  0  0  0  0  0  0  0  0  0  0  0
    2.6646    0.3420   -0.4791 C   0  0  0  0  0  0  0  0  0  0  0  0
    3.2405    1.4377    0.1605 C   0  0  0  0  0  0  0  0  0  0  0  0
    4.5390    1.5382    0.5755 O   0  0  0  0  0  0  0  0  0  0  0  0
    5.3763    0.4120    0.3455 C   0  0  0  0  0  0  0  0  0  0  0  0
   -1.1316   -5.9438    3.0880 H   0  0  0  0  0  0  0  0  0  0  0  0
   -0.9275   -5.5133    1.4069 H   0  0  0  0  0  0  0  0  0  0  0  0
   -2.4594   -5.2356    2.2001 H   0  0  0  0  0  0  0  0  0  0  0  0
   -2.1559   -3.9579    0.2671 H   0  0  0  0  0  0  0  0  0  0  0  0
   -0.3631   -1.5624    3.2064 H   0  0  0  0  0  0  0  0  0  0  0  0
   -2.5188   -1.9956   -1.1025 H   0  0  0  0  0  0  0  0  0  0  0  0
   -0.7328    0.4027    1.8480 H   0  0  0  0  0  0  0  0  0  0  0  0
    0.5465    3.4356    0.2399 H   0  0  0  0  0  0  0  0  0  0  0  0
    0.9032   -0.4439   -1.3317 H   0  0  0  0  0  0  0  0  0  0  0  0
   -3.9590    3.7639   -3.2362 H   0  0  0  0  0  0  0  0  0  0  0  0
   -2.3365    3.8397   -3.8803 H   0  0  0  0  0  0  0  0  0  0  0  0
   -2.7539    4.7581   -2.4537 H   0  0  0  0  0  0  0  0  0  0  0  0
    2.8756    3.3818    0.8833 H   0  0  0  0  0  0  0  0  0  0  0  0
    3.2349   -0.4942   -0.6803 H   0  0  0  0  0  0  0  0  0  0  0  0
    6.3597    0.6175    0.7138 H   0  0  0  0  0  0  0  0  0  0  0  0
    5.4235    0.2111   -0.7044 H   0  0  0  0  0  0  0  0  0  0  0  0
    4.9758   -0.4400    0.8540 H   0  0  0  0  0  0  0  0  0  0  0  0
  1  2  1  0  0  0  0
  1  3  1  0  0  0  0
  2  4  2  0  0  0  0
  2  5  1  0  0  0  0
  3 24  1  0  0  0  0
  3 25  1  0  0  0  0
  3 26  1  0  0  0  0
  4  6  1  0  0  0  0
  4 27  1  0  0  0  0
  5  7  2  0  0  0  0
  5 28  1  0  0  0  0
  6  8  2  0  0  0  0
  6 29  1  0  0  0  0
  7  8  1  0  0  0  0
  7 30  1  0  0  0  0
  8  9  1  0  0  0  0
  9 10  2  0  0  0  0
  9 11  1  0  0  0  0
 10 12  1  0  0  0  0
 11 13  2  0  0  0  0
 11 14  1  0  0  0  0
 12 15  2  0  0  0  0
 13 15  1  0  0  0  0
 14 16  2  0  0  0  0
 14 17  1  0  0  0  0
 15 18  1  0  0  0  0
 16 19  1  0  0  0  0
 16 31  1  0  0  0  0
 17 20  2  0  0  0  0
 17 32  1  0  0  0  0
 18 33  1  0  0  0  0
 18 34  1  0  0  0  0
 18 35  1  0  0  0  0
 19 21  2  0  0  0  0
 19 36  1  0  0  0  0
 20 21  1  0  0  0  0
 20 37  1  0  0  0  0
 21 22  1  0  0  0  0
 22 23  1  0  0  0  0
 23 38  1  0  0  0  0
 23 39  1  0  0  0  0
 23 40  1  0  0  0  0
M  END
>  <Column 1>
COc1ccc(-c2nnc(C)nc2-c2ccc(OC)cc2)cc1 ZINC000000000957

>  <Column 2>
Decoy59

>  <MMFF94 Energy>
115.16

$$$$
Decoy60
 OpenBabel07082414533D

 28 30  0  0  0  0  0  0  0  0999 V2000
   -2.7167   -0.6130    2.1028 Cl  0  0  0  0  0  0  0  0  0  0  0  0
   -1.2204   -1.4574    1.9280 C   0  0  0  0  0  0  0  0  0  0  0  0
   -0.6641   -1.7281    0.6696 C   0  0  0  0  0  0  0  0  0  0  0  0
   -0.5887   -1.8912    3.1011 C   0  0  0  0  0  0  0  0  0  0  0  0
    0.5269   -2.4647    0.6347 C   0  0  0  0  0  0  0  0  0  0  0  0
   -1.2747   -1.2673   -0.6271 C   0  0  0  0  0  0  0  0  0  0  0  0
    0.6047   -2.6087    3.0362 C   0  0  0  0  0  0  0  0  0  0  0  0
    1.0771   -2.7875   -0.5445 F   0  0  0  0  0  0  0  0  0  0  0  0
    1.1611   -2.9005    1.7960 C   0  0  0  0  0  0  0  0  0  0  0  0
   -1.0857    0.1539   -0.8610 N   0  0  0  0  0  0  0  0  0  0  0  0
    0.0894    0.7758   -1.1839 C   0  0  0  0  0  0  0  0  0  0  0  0
   -2.0744    1.1035   -0.8895 C   0  0  0  0  0  0  0  0  0  0  0  0
    1.3068    0.2260   -1.3130 N   0  0  0  0  0  0  0  0  0  0  0  0
   -0.2480    2.1090   -1.3539 C   0  0  0  0  0  0  0  0  0  0  0  0
   -1.6038    2.2992   -1.1771 N   0  0  0  0  0  0  0  0  0  0  0  0
    2.2241    1.1572   -1.6402 C   0  0  0  0  0  0  0  0  0  0  0  0
    0.7981    2.9873   -1.6831 C   0  0  0  0  0  0  0  0  0  0  0  0
    2.0431    2.4817   -1.8365 N   0  0  0  0  0  0  0  0  0  0  0  0
    0.6128    4.3496   -1.8848 N   0  0  0  0  0  0  0  0  0  0  0  0
   -1.0096   -1.6782    4.0190 H   0  0  0  0  0  0  0  0  0  0  0  0
   -2.3243   -1.4740   -0.6039 H   0  0  0  0  0  0  0  0  0  0  0  0
   -0.7857   -1.7936   -1.4201 H   0  0  0  0  0  0  0  0  0  0  0  0
    1.0715   -2.9208    3.9020 H   0  0  0  0  0  0  0  0  0  0  0  0
    2.0402   -3.4377    1.7359 H   0  0  0  0  0  0  0  0  0  0  0  0
   -3.0704    0.9045   -0.7070 H   0  0  0  0  0  0  0  0  0  0  0  0
    3.1905    0.8142   -1.7559 H   0  0  0  0  0  0  0  0  0  0  0  0
   -0.2825    4.7454   -1.7801 H   0  0  0  0  0  0  0  0  0  0  0  0
    1.3768    4.9190   -2.1324 H   0  0  0  0  0  0  0  0  0  0  0  0
  1  2  1  0  0  0  0
  2  3  2  0  0  0  0
  2  4  1  0  0  0  0
  3  5  1  0  0  0  0
  3  6  1  0  0  0  0
  4  7  2  0  0  0  0
  4 20  1  0  0  0  0
  5  8  1  0  0  0  0
  5  9  2  0  0  0  0
  6 10  1  0  0  0  0
  6 21  1  0  0  0  0
  6 22  1  0  0  0  0
  7  9  1  0  0  0  0
  7 23  1  0  0  0  0
  9 24  1  0  0  0  0
 10 11  1  0  0  0  0
 10 12  1  0  0  0  0
 11 13  2  0  0  0  0
 11 14  1  0  0  0  0
 12 15  2  0  0  0  0
 12 25  1  0  0  0  0
 13 16  1  0  0  0  0
 14 17  2  0  0  0  0
 14 15  1  0  0  0  0
 16 18  2  0  0  0  0
 16 26  1  0  0  0  0
 17 19  1  0  0  0  0
 17 18  1  0  0  0  0
 19 27  1  0  0  0  0
 19 28  1  0  0  0  0
M  END
>  <Column 1>
Nc1ncnc2c1ncn2Cc1c(F)cccc1Cl ZINC000000000969

>  <Column 2>
Decoy60

>  <MMFF94 Energy>
4.297

$$$$
Decoy61
 OpenBabel07082414533D

 40 43  0  0  1  0  0  0  0  0999 V2000
   -0.9863    1.1657   -2.5120 O   0  0  0  0  0  0  0  0  0  0  0  0
   -1.8023    1.5593   -1.4590 C   0  0  0  0  0  0  0  0  0  0  0  0
   -0.7341   -0.1924   -2.5991 C   0  0  0  0  0  0  0  0  0  0  0  0
   -2.5566    2.6532   -1.6983 N   0  0  0  0  0  0  0  0  0  0  0  0
   -1.8365    0.8313   -0.2610 C   0  0  0  0  0  0  0  0  0  0  0  0
   -0.6999   -1.0146   -1.4581 C   0  0  0  0  0  0  0  0  0  0  0  0
   -0.5331   -0.7260   -3.8698 C   0  0  0  0  0  0  0  0  0  0  0  0
   -3.4573    2.9848   -0.7495 C   0  0  0  0  0  0  0  0  0  0  0  0
   -0.8876   -0.3032   -0.1687 C   0  0  0  0  0  0  0  0  0  0  0  0
   -2.8130    1.1733    0.6724 C   0  0  0  0  0  0  0  0  0  0  0  0
   -0.5731   -2.3968   -1.6175 C   0  0  0  0  0  0  0  0  0  0  0  0
   -0.3543   -2.1013   -4.0144 C   0  0  0  0  0  0  0  0  0  0  0  0
   -3.6318    2.2750    0.4294 C   0  0  0  0  0  0  0  0  0  0  0  0
   -0.0567   -0.4955    0.8929 C   0  0  0  0  0  0  0  0  0  0  0  0
   -0.3895   -2.9352   -2.8941 C   0  0  0  0  0  0  0  0  0  0  0  0
   -0.0341    0.3502    2.1576 C   0  0  0  0  0  0  0  0  0  0  0  0
    1.0953   -1.5061    0.9075 C   0  0  0  0  0  0  0  0  0  0  0  0
    1.2647    1.1639    2.2872 C   0  0  0  0  0  0  0  0  0  0  0  0
    2.3135   -1.0439    1.7273 C   0  0  0  0  0  0  0  0  0  0  0  0
    2.4360    0.4581    1.6298 N   0  3  2  0  0  0  0  0  0  0  0  0
    3.7576    0.9731    2.1112 C   0  0  0  0  0  0  0  0  0  0  0  0
   -0.5166   -0.1090   -4.6969 H   0  0  0  0  0  0  0  0  0  0  0  0
   -4.0502    3.8140   -0.9103 H   0  0  0  0  0  0  0  0  0  0  0  0
   -2.9287    0.6172    1.5340 H   0  0  0  0  0  0  0  0  0  0  0  0
   -0.6149   -3.0185   -0.7948 H   0  0  0  0  0  0  0  0  0  0  0  0
   -0.1956   -2.5041   -4.9512 H   0  0  0  0  0  0  0  0  0  0  0  0
   -4.3526    2.5566    1.1122 H   0  0  0  0  0  0  0  0  0  0  0  0
   -0.2793   -3.9547   -3.0099 H   0  0  0  0  0  0  0  0  0  0  0  0
   -0.1225   -0.2957    3.0061 H   0  0  0  0  0  0  0  0  0  0  0  0
   -0.8509    1.0396    2.1073 H   0  0  0  0  0  0  0  0  0  0  0  0
    1.4107   -1.6734   -0.1012 H   0  0  0  0  0  0  0  0  0  0  0  0
    0.7249   -2.3958    1.3723 H   0  0  0  0  0  0  0  0  0  0  0  0
    1.4832    1.3056    3.3250 H   0  0  0  0  0  0  0  0  0  0  0  0
    1.1212    2.1027    1.7943 H   0  0  0  0  0  0  0  0  0  0  0  0
    3.2000   -1.5012    1.3401 H   0  0  0  0  0  0  0  0  0  0  0  0
    2.1873   -1.3288    2.7509 H   0  0  0  0  0  0  0  0  0  0  0  0
    2.4005    0.6834    0.6356 H   0  0  0  0  0  0  0  0  0  0  0  0
    3.8611    0.7680    3.1562 H   0  0  0  0  0  0  0  0  0  0  0  0
    3.8096    2.0293    1.9482 H   0  0  0  0  0  0  0  0  0  0  0  0
    4.5462    0.4899    1.5731 H   0  0  0  0  0  0  0  0  0  0  0  0
  1  2  1  0  0  0  0
  1  3  1  0  0  0  0
  2  4  2  0  0  0  0
  2  5  1  0  0  0  0
  3  6  2  0  0  0  0
  3  7  1  0  0  0  0
  4  8  1  0  0  0  0
  5  9  1  0  0  0  0
  5 10  2  0  0  0  0
  6 11  1  0  0  0  0
  6  9  1  0  0  0  0
  7 12  2  0  0  0  0
  7 22  1  0  0  0  0
  8 13  2  0  0  0  0
  8 23  1  0  0  0  0
  9 14  2  0  0  0  0
 10 13  1  0  0  0  0
 10 24  1  0  0  0  0
 11 15  2  0  0  0  0
 11 25  1  0  0  0  0
 12 15  1  0  0  0  0
 12 26  1  0  0  0  0
 13 27  1  0  0  0  0
 14 16  1  0  0  0  0
 14 17  1  0  0  0  0
 15 28  1  0  0  0  0
 16 18  1  0  0  0  0
 16 29  1  0  0  0  0
 16 30  1  0  0  0  0
 17 19  1  0  0  0  0
 17 31  1  0  0  0  0
 17 32  1  0  0  0  0
 18 20  1  0  0  0  0
 18 33  1  0  0  0  0
 18 34  1  0  0  0  0
 19 20  1  0  0  0  0
 19 35  1  0  0  0  0
 19 36  1  0  0  0  0
 20 21  1  0  0  0  0
 20 37  1  6  0  0  0
 21 38  1  0  0  0  0
 21 39  1  0  0  0  0
 21 40  1  0  0  0  0
M  CHG  1  20   1
M  END
>  <Column 1>
C[NH+]1CCC(=C2c3ccccc3Oc3ncccc32)CC1 ZINC000000000978

>  <Column 2>
Decoy61

>  <MMFF94 Energy>
124.7

$$$$
Decoy62
 OpenBabel07082414533D

 44 46  0  0  0  0  0  0  0  0999 V2000
   -0.0878   -3.7793    0.2633 N   0  3  0  0  0  0  0  0  0  0  0  0
   -0.0252   -4.7741   -0.6158 C   0  0  0  0  0  0  0  0  0  0  0  0
    0.2103   -2.5303   -0.1055 C   0  0  0  0  0  0  0  0  0  0  0  0
    0.3197   -4.5995   -1.8970 N   0  0  0  0  0  0  0  0  0  0  0  0
   -0.3542   -6.0463   -0.1954 N   0  0  0  0  0  0  0  0  0  0  0  0
    0.5750   -2.2573   -1.4231 C   0  0  0  0  0  0  0  0  0  0  0  0
    0.6167   -3.3490   -2.2873 C   0  0  0  0  0  0  0  0  0  0  0  0
    0.9693   -0.8701   -1.8886 C   0  0  0  0  0  0  0  0  0  0  0  0
    1.0446   -3.2266   -3.5987 N   0  0  0  0  0  0  0  0  0  0  0  0
    0.6015    0.2614   -0.9437 C   0  0  0  0  0  0  0  0  0  0  0  0
   -0.7273    0.7401   -0.7978 C   0  0  0  0  0  0  0  0  0  0  0  0
    1.6206    0.8043   -0.1495 C   0  0  0  0  0  0  0  0  0  0  0  0
   -1.0157    1.7435    0.1616 C   0  0  0  0  0  0  0  0  0  0  0  0
   -1.8074    0.2571   -1.5733 C   0  0  0  0  0  0  0  0  0  0  0  0
    1.3593    1.8008    0.7986 C   0  0  0  0  0  0  0  0  0  0  0  0
   -2.2871    2.1787    0.3381 N   0  0  0  0  0  0  0  0  0  0  0  0
    0.0417    2.2931    0.9444 C   0  0  0  0  0  0  0  0  0  0  0  0
   -3.0962    0.7408   -1.3919 C   0  0  0  0  0  0  0  0  0  0  0  0
    2.5222    2.3127    1.6073 C   0  0  0  0  0  0  0  0  0  0  0  0
   -3.2847    1.6980   -0.4262 C   0  0  0  0  0  0  0  0  0  0  0  0
   -0.2763    3.3206    1.8534 N   0  0  0  0  0  0  0  0  0  0  0  0
    0.4111    4.5970    1.7590 C   0  0  0  0  0  0  0  0  0  0  0  0
   -0.7323    2.8847    3.1633 C   0  0  0  0  0  0  0  0  0  0  0  0
   -0.3556   -3.9640    1.1925 H   0  0  0  0  0  0  0  0  0  0  0  0
    0.1705   -1.7658    0.5866 H   0  0  0  0  0  0  0  0  0  0  0  0
   -0.6118   -6.2039    0.7417 H   0  0  0  0  0  0  0  0  0  0  0  0
   -0.3314   -6.7965   -0.8325 H   0  0  0  0  0  0  0  0  0  0  0  0
    0.4880   -0.6870   -2.8265 H   0  0  0  0  0  0  0  0  0  0  0  0
    2.0377   -0.8706   -1.9475 H   0  0  0  0  0  0  0  0  0  0  0  0
    1.0632   -4.0164   -4.1862 H   0  0  0  0  0  0  0  0  0  0  0  0
    1.3302   -2.3498   -3.9435 H   0  0  0  0  0  0  0  0  0  0  0  0
    2.5869    0.4613   -0.2663 H   0  0  0  0  0  0  0  0  0  0  0  0
   -1.6342   -0.4680   -2.2869 H   0  0  0  0  0  0  0  0  0  0  0  0
   -3.8833    0.3936   -1.9620 H   0  0  0  0  0  0  0  0  0  0  0  0
    3.4120    1.7915    1.3219 H   0  0  0  0  0  0  0  0  0  0  0  0
    2.3320    2.1505    2.6477 H   0  0  0  0  0  0  0  0  0  0  0  0
    2.6487    3.3598    1.4268 H   0  0  0  0  0  0  0  0  0  0  0  0
   -4.2374    2.0666   -0.2793 H   0  0  0  0  0  0  0  0  0  0  0  0
    0.6840    4.7807    0.7408 H   0  0  0  0  0  0  0  0  0  0  0  0
    1.2922    4.5733    2.3657 H   0  0  0  0  0  0  0  0  0  0  0  0
   -0.2366    5.3771    2.1010 H   0  0  0  0  0  0  0  0  0  0  0  0
   -1.2164    1.9346    3.0745 H   0  0  0  0  0  0  0  0  0  0  0  0
   -1.4224    3.6012    3.5574 H   0  0  0  0  0  0  0  0  0  0  0  0
    0.1063    2.7975    3.8221 H   0  0  0  0  0  0  0  0  0  0  0  0
  1  2  2  0  0  0  0
  1  3  1  0  0  0  0
  1 24  1  0  0  0  0
  2  4  1  0  0  0  0
  2  5  1  0  0  0  0
  3  6  2  0  0  0  0
  3 25  1  0  0  0  0
  4  7  2  0  0  0  0
  5 26  1  0  0  0  0
  5 27  1  0  0  0  0
  6  8  1  0  0  0  0
  6  7  1  0  0  0  0
  7  9  1  0  0  0  0
  8 10  1  0  0  0  0
  8 28  1  0  0  0  0
  8 29  1  0  0  0  0
  9 30  1  0  0  0  0
  9 31  1  0  0  0  0
 10 11  1  0  0  0  0
 10 12  2  0  0  0  0
 11 13  1  0  0  0  0
 11 14  2  0  0  0  0
 12 15  1  0  0  0  0
 12 32  1  0  0  0  0
 13 16  2  0  0  0  0
 13 17  1  0  0  0  0
 14 18  1  0  0  0  0
 14 33  1  0  0  0  0
 15 19  1  0  0  0  0
 15 17  2  0  0  0  0
 16 20  1  0  0  0  0
 17 21  1  0  0  0  0
 18 20  2  0  0  0  0
 18 34  1  0  0  0  0
 19 35  1  0  0  0  0
 19 36  1  0  0  0  0
 19 37  1  0  0  0  0
 20 38  1  0  0  0  0
 21 22  1  0  0  0  0
 21 23  1  0  0  0  0
 22 39  1  0  0  0  0
 22 40  1  0  0  0  0
 22 41  1  0  0  0  0
 23 42  1  0  0  0  0
 23 43  1  0  0  0  0
 23 44  1  0  0  0  0
M  CHG  1   1   1
M  END
>  <Column 1>
Cc1cc(Cc2c[nH+]c(N)nc2N)c2cccnc2c1N(C)C ZINC000000000989

>  <Column 2>
Decoy62

>  <MMFF94 Energy>
-5.4995

$$$$
Decoy63
 OpenBabel07082414533D

 32 32  0  0  0  0  0  0  0  0999 V2000
    2.3462   -2.1722    6.0034 O   0  0  0  0  0  0  0  0  0  0  0  0
    2.3618   -1.9499    4.7617 C   0  0  0  0  0  0  0  0  0  0  0  0
    3.3379   -1.8997    3.9602 O   0  5  0  0  0  0  0  0  0  0  0  0
    0.9890   -1.6778    4.1579 C   0  0  0  0  0  0  0  0  0  0  0  0
    0.8556   -1.5334    2.8323 C   0  0  0  0  0  0  0  0  0  0  0  0
   -0.4496   -1.2086    2.2048 C   0  0  0  0  0  0  0  0  0  0  0  0
   -1.5250   -1.3608    2.7755 O   0  0  0  0  0  0  0  0  0  0  0  0
   -0.4250   -0.6879    0.8094 C   0  0  0  0  0  0  0  0  0  0  0  0
   -1.5464   -0.9032    0.0056 C   0  0  0  0  0  0  0  0  0  0  0  0
    0.6659    0.0370    0.3032 C   0  0  0  0  0  0  0  0  0  0  0  0
   -1.5763   -0.3870   -1.2882 C   0  0  0  0  0  0  0  0  0  0  0  0
    0.6595    0.5197   -1.0134 C   0  0  0  0  0  0  0  0  0  0  0  0
   -2.6846   -0.6421   -2.0587 O   0  0  0  0  0  0  0  0  0  0  0  0
   -0.4865    0.3293   -1.8073 C   0  0  0  0  0  0  0  0  0  0  0  0
    1.7189    1.1829   -1.5794 O   0  0  0  0  0  0  0  0  0  0  0  0
   -3.6331    0.4130   -1.9063 C   0  0  0  0  0  0  0  0  0  0  0  0
   -0.5978    0.7511   -3.1113 O   0  0  0  0  0  0  0  0  0  0  0  0
    2.9816    1.0589   -0.9320 C   0  0  0  0  0  0  0  0  0  0  0  0
   -0.2796    2.1267   -3.3014 C   0  0  0  0  0  0  0  0  0  0  0  0
    0.1616   -1.6047    4.7704 H   0  0  0  0  0  0  0  0  0  0  0  0
    1.6851   -1.6516    2.2298 H   0  0  0  0  0  0  0  0  0  0  0  0
   -2.3487   -1.4418    0.3679 H   0  0  0  0  0  0  0  0  0  0  0  0
    1.4827    0.2168    0.9078 H   0  0  0  0  0  0  0  0  0  0  0  0
   -4.4936    0.2087   -2.5085 H   0  0  0  0  0  0  0  0  0  0  0  0
   -3.1917    1.3370   -2.2167 H   0  0  0  0  0  0  0  0  0  0  0  0
   -3.9252    0.4845   -0.8794 H   0  0  0  0  0  0  0  0  0  0  0  0
    3.7156    1.6203   -1.4714 H   0  0  0  0  0  0  0  0  0  0  0  0
    3.2691    0.0286   -0.9054 H   0  0  0  0  0  0  0  0  0  0  0  0
    2.9086    1.4347    0.0672 H   0  0  0  0  0  0  0  0  0  0  0  0
   -0.3889    2.3785   -4.3356 H   0  0  0  0  0  0  0  0  0  0  0  0
    0.7303    2.3047   -2.9958 H   0  0  0  0  0  0  0  0  0  0  0  0
   -0.9411    2.7301   -2.7156 H   0  0  0  0  0  0  0  0  0  0  0  0
  1  2  2  0  0  0  0
  2  3  1  0  0  0  0
  2  4  1  0  0  0  0
  4  5  2  0  0  0  0
  4 20  1  0  0  0  0
  5  6  1  0  0  0  0
  5 21  1  0  0  0  0
  6  7  2  0  0  0  0
  6  8  1  0  0  0  0
  8  9  2  0  0  0  0
  8 10  1  0  0  0  0
  9 11  1  0  0  0  0
  9 22  1  0  0  0  0
 10 12  2  0  0  0  0
 10 23  1  0  0  0  0
 11 13  1  0  0  0  0
 11 14  2  0  0  0  0
 12 15  1  0  0  0  0
 12 14  1  0  0  0  0
 13 16  1  0  0  0  0
 14 17  1  0  0  0  0
 15 18  1  0  0  0  0
 16 24  1  0  0  0  0
 16 25  1  0  0  0  0
 16 26  1  0  0  0  0
 17 19  1  0  0  0  0
 18 27  1  0  0  0  0
 18 28  1  0  0  0  0
 18 29  1  0  0  0  0
 19 30  1  0  0  0  0
 19 31  1  0  0  0  0
 19 32  1  0  0  0  0
M  CHG  1   3  -1
M  END
>  <Column 1>
COc1cc(C(=O)/C=C/C(=O)[O-])cc(OC)c1OC ZINC000000000992

>  <Column 2>
Decoy63

>  <MMFF94 Energy>
57.128

$$$$
Decoy64
 OpenBabel07082414533D

 43 45  0  0  0  0  0  0  0  0999 V2000
   -4.1589    1.6260    4.3400 Cl  0  0  0  0  0  0  0  0  0  0  0  0
   -3.7143    1.1638    2.7272 C   0  0  0  0  0  0  0  0  0  0  0  0
   -2.3741    0.9314    2.3481 C   0  0  0  0  0  0  0  0  0  0  0  0
   -4.7607    1.0496    1.8030 C   0  0  0  0  0  0  0  0  0  0  0  0
   -2.1219    0.5592    1.0077 C   0  0  0  0  0  0  0  0  0  0  0  0
   -1.2841    1.0132    3.3487 C   0  0  0  0  0  0  0  0  0  0  0  0
   -4.4962    0.7000    0.4837 C   0  0  0  0  0  0  0  0  0  0  0  0
   -0.7374    0.3175    0.5236 C   0  0  0  0  0  0  0  0  0  0  0  0
   -3.1838    0.4600    0.0877 C   0  0  0  0  0  0  0  0  0  0  0  0
   -0.0250    1.4458    3.1666 C   0  0  0  0  0  0  0  0  0  0  0  0
    0.2920    1.3749    0.6540 C   0  0  0  0  0  0  0  0  0  0  0  0
   -0.4504   -0.9167    0.0518 C   0  0  0  0  0  0  0  0  0  0  0  0
    0.5877    1.9260    1.9158 C   0  0  0  0  0  0  0  0  0  0  0  0
    0.9435    1.8709   -0.4876 C   0  0  0  0  0  0  0  0  0  0  0  0
    0.8809   -1.4431   -0.4261 C   0  0  0  0  0  0  0  0  0  0  0  0
    1.5643    2.9313    2.0094 C   0  0  0  0  0  0  0  0  0  0  0  0
    1.9055    2.8749   -0.3785 C   0  0  0  0  0  0  0  0  0  0  0  0
    0.8125   -1.8193   -1.9076 C   0  0  0  0  0  0  0  0  0  0  0  0
    2.2169    3.4042    0.8696 C   0  0  0  0  0  0  0  0  0  0  0  0
    2.1569   -2.1433   -2.5444 N   0  3  0  0  0  0  0  0  0  0  0  0
    2.9722   -1.0417   -2.5090 O   0  5  0  0  0  0  0  0  0  0  0  0
    1.9331   -2.5212   -3.9848 C   0  0  0  0  0  0  0  0  0  0  0  0
    2.8287   -3.2895   -1.8396 C   0  0  0  0  0  0  0  0  0  0  0  0
   -5.7324    1.2258    2.1028 H   0  0  0  0  0  0  0  0  0  0  0  0
   -1.5212    0.6993    4.3028 H   0  0  0  0  0  0  0  0  0  0  0  0
   -5.2675    0.6190   -0.1971 H   0  0  0  0  0  0  0  0  0  0  0  0
   -2.9861    0.2060   -0.8928 H   0  0  0  0  0  0  0  0  0  0  0  0
    0.5837    1.4411    4.0000 H   0  0  0  0  0  0  0  0  0  0  0  0
   -1.2393   -1.5810    0.0138 H   0  0  0  0  0  0  0  0  0  0  0  0
    0.7078    1.4884   -1.4167 H   0  0  0  0  0  0  0  0  0  0  0  0
    1.1415   -2.3097    0.1448 H   0  0  0  0  0  0  0  0  0  0  0  0
    1.6191   -0.6791   -0.2985 H   0  0  0  0  0  0  0  0  0  0  0  0
    1.8025    3.3255    2.9329 H   0  0  0  0  0  0  0  0  0  0  0  0
    2.3855    3.2246   -1.2225 H   0  0  0  0  0  0  0  0  0  0  0  0
    0.3806   -0.9980   -2.4404 H   0  0  0  0  0  0  0  0  0  0  0  0
    0.2273   -2.7132   -1.9657 H   0  0  0  0  0  0  0  0  0  0  0  0
    2.9297    4.1458    0.9529 H   0  0  0  0  0  0  0  0  0  0  0  0
    1.4551   -1.7117   -4.4958 H   0  0  0  0  0  0  0  0  0  0  0  0
    1.3109   -3.3904   -4.0330 H   0  0  0  0  0  0  0  0  0  0  0  0
    2.8742   -2.7300   -4.4491 H   0  0  0  0  0  0  0  0  0  0  0  0
    2.9925   -3.0310   -0.8143 H   0  0  0  0  0  0  0  0  0  0  0  0
    3.7674   -3.4963   -2.3096 H   0  0  0  0  0  0  0  0  0  0  0  0
    2.2042   -4.1567   -1.8935 H   0  0  0  0  0  0  0  0  0  0  0  0
  1  2  1  0  0  0  0
  2  3  2  0  0  0  0
  2  4  1  0  0  0  0
  3  5  1  0  0  0  0
  3  6  1  0  0  0  0
  4  7  2  0  0  0  0
  4 24  1  0  0  0  0
  5  8  1  0  0  0  0
  5  9  2  0  0  0  0
  6 10  2  0  0  0  0
  6 25  1  0  0  0  0
  7  9  1  0  0  0  0
  7 26  1  0  0  0  0
  8 11  1  0  0  0  0
  8 12  2  0  0  0  0
  9 27  1  0  0  0  0
 10 13  1  0  0  0  0
 10 28  1  0  0  0  0
 11 14  1  0  0  0  0
 11 13  2  0  0  0  0
 12 15  1  0  0  0  0
 12 29  1  0  0  0  0
 13 16  1  0  0  0  0
 14 17  2  0  0  0  0
 14 30  1  0  0  0  0
 15 18  1  0  0  0  0
 15 31  1  0  0  0  0
 15 32  1  0  0  0  0
 16 19  2  0  0  0  0
 16 33  1  0  0  0  0
 17 19  1  0  0  0  0
 17 34  1  0  0  0  0
 18 20  1  0  0  0  0
 18 35  1  0  0  0  0
 18 36  1  0  0  0  0
 19 37  1  0  0  0  0
 20 21  1  0  0  0  0
 20 22  1  0  0  0  0
 20 23  1  0  0  0  0
 22 38  1  0  0  0  0
 22 39  1  0  0  0  0
 22 40  1  0  0  0  0
 23 41  1  0  0  0  0
 23 42  1  0  0  0  0
 23 43  1  0  0  0  0
M  CHG  2  20   1  21  -1
M  END
>  <Column 1>
C[N+](C)([O-])CC/C=C1\c2ccccc2C=Cc2c(Cl)cccc21 ZINC000000001009

>  <Column 2>
Decoy64

>  <MMFF94 Energy>
99.446

$$$$
Decoy65
 OpenBabel07082414533D

 18 18  0  0  0  0  0  0  0  0999 V2000
    1.1851   -1.1851    4.0149 Br  0  0  0  0  0  0  0  0  0  0  0  0
    0.5383   -0.5195    2.3368 C   0  0  0  0  0  0  0  0  0  0  0  0
   -0.7714   -0.8133    1.8784 C   0  0  0  0  0  0  0  0  0  0  0  0
    1.4456    0.2667    1.6041 C   0  0  0  0  0  0  0  0  0  0  0  0
   -1.6340   -1.5250    2.4980 O   0  5  0  0  0  0  0  0  0  0  0  0
   -1.0832   -0.2421    0.6245 C   0  0  0  0  0  0  0  0  0  0  0  0
    1.0811    0.7976    0.3724 C   0  0  0  0  0  0  0  0  0  0  0  0
   -0.1944    0.5486   -0.1306 C   0  0  0  0  0  0  0  0  0  0  0  0
   -0.6159    1.0935   -1.4690 C   0  0  0  0  0  0  0  0  0  0  0  0
    0.1644    0.4955   -2.5206 O   0  0  0  0  0  0  0  0  0  0  0  0
   -0.4556   -0.7578   -2.9651 N   0  0  0  0  0  0  0  0  0  0  0  0
    2.3876    0.4505    1.9833 H   0  0  0  0  0  0  0  0  0  0  0  0
   -2.0235   -0.4153    0.2361 H   0  0  0  0  0  0  0  0  0  0  0  0
    1.7495    1.3714   -0.1652 H   0  0  0  0  0  0  0  0  0  0  0  0
   -0.4699    2.1534   -1.4803 H   0  0  0  0  0  0  0  0  0  0  0  0
   -1.6487    0.8638   -1.6285 H   0  0  0  0  0  0  0  0  0  0  0  0
    0.1069   -1.1702   -3.7093 H   0  0  0  0  0  0  0  0  0  0  0  0
   -1.3948   -0.5673   -3.3145 H   0  0  0  0  0  0  0  0  0  0  0  0
  1  2  1  0  0  0  0
  2  3  2  0  0  0  0
  2  4  1  0  0  0  0
  3  5  1  0  0  0  0
  3  6  1  0  0  0  0
  4  7  2  0  0  0  0
  4 12  1  0  0  0  0
  6  8  2  0  0  0  0
  6 13  1  0  0  0  0
  7  8  1  0  0  0  0
  7 14  1  0  0  0  0
  8  9  1  0  0  0  0
  9 10  1  0  0  0  0
  9 15  1  0  0  0  0
  9 16  1  0  0  0  0
 10 11  1  0  0  0  0
 11 17  1  0  0  0  0
 11 18  1  0  0  0  0
M  CHG  1   5  -1
M  END
>  <Column 1>
NOCc1ccc(Br)c([O-])c1 ZINC000000001045

>  <Column 2>
Decoy65

>  <MMFF94 Energy>
56.189

$$$$
Decoy66
 OpenBabel07082414533D

 35 37  0  0  0  0  0  0  0  0999 V2000
   -3.0123    2.0075    1.8249 Br  0  0  0  0  0  0  0  0  0  0  0  0
   -1.4594    1.1042    2.3921 C   0  0  0  0  0  0  0  0  0  0  0  0
   -0.5856    0.4994    1.4923 C   0  0  0  0  0  0  0  0  0  0  0  0
   -1.1350    1.0135    3.7480 C   0  0  0  0  0  0  0  0  0  0  0  0
   -0.7120    0.4691    0.1342 O   0  0  0  0  0  0  0  0  0  0  0  0
    0.5683   -0.1749    1.8759 C   0  0  0  0  0  0  0  0  0  0  0  0
    0.0172    0.3439    4.1779 C   0  0  0  0  0  0  0  0  0  0  0  0
    0.3536   -0.2207   -0.3590 C   0  0  0  0  0  0  0  0  0  0  0  0
    0.8803   -0.2567    3.2483 C   0  0  0  0  0  0  0  0  0  0  0  0
    1.1689   -0.6369    0.6720 C   0  0  0  0  0  0  0  0  0  0  0  0
    0.1903    0.3457    5.5362 O   0  0  0  0  0  0  0  0  0  0  0  0
    0.4059   -0.3699   -1.8412 C   0  0  0  0  0  0  0  0  0  0  0  0
    1.3404   -0.3160    6.0491 C   0  0  0  0  0  0  0  0  0  0  0  0
   -0.8160   -1.1534   -2.3475 C   0  0  0  0  0  0  0  0  0  0  0  0
    0.5031    1.0067   -2.5185 C   0  0  0  0  0  0  0  0  0  0  0  0
   -0.8420   -1.2349   -3.8628 C   0  0  0  0  0  0  0  0  0  0  0  0
    0.4571    0.8925   -4.0312 C   0  0  0  0  0  0  0  0  0  0  0  0
   -0.7690    0.1426   -4.4303 N   0  3  0  0  0  0  0  0  0  0  0  0
   -1.7572    1.4488    4.4469 H   0  0  0  0  0  0  0  0  0  0  0  0
    1.7297   -0.7503    3.5643 H   0  0  0  0  0  0  0  0  0  0  0  0
    2.0437   -1.1778    0.5870 H   0  0  0  0  0  0  0  0  0  0  0  0
    1.2833   -0.9259   -2.0980 H   0  0  0  0  0  0  0  0  0  0  0  0
    1.3507   -0.2378    7.1162 H   0  0  0  0  0  0  0  0  0  0  0  0
    2.2221    0.1400    5.6496 H   0  0  0  0  0  0  0  0  0  0  0  0
    1.3135   -1.3479    5.7673 H   0  0  0  0  0  0  0  0  0  0  0  0
   -1.7058   -0.6634   -2.0113 H   0  0  0  0  0  0  0  0  0  0  0  0
   -0.7573   -2.1494   -1.9608 H   0  0  0  0  0  0  0  0  0  0  0  0
    1.4250    1.4691   -2.2335 H   0  0  0  0  0  0  0  0  0  0  0  0
   -0.3339    1.5937   -2.2027 H   0  0  0  0  0  0  0  0  0  0  0  0
   -1.7493   -1.7049   -4.1802 H   0  0  0  0  0  0  0  0  0  0  0  0
   -0.0070   -1.8093   -4.2059 H   0  0  0  0  0  0  0  0  0  0  0  0
    1.3244    0.3700   -4.3770 H   0  0  0  0  0  0  0  0  0  0  0  0
    0.4369    1.8705   -4.4647 H   0  0  0  0  0  0  0  0  0  0  0  0
   -1.5844    0.6658   -4.1112 H   0  0  0  0  0  0  0  0  0  0  0  0
   -0.7412    0.0453   -5.4453 H   0  0  0  0  0  0  0  0  0  0  0  0
  1  2  1  0  0  0  0
  2  3  2  0  0  0  0
  2  4  1  0  0  0  0
  3  5  1  0  0  0  0
  3  6  1  0  0  0  0
  4  7  2  0  0  0  0
  4 19  1  0  0  0  0
  5  8  1  0  0  0  0
  6  9  2  0  0  0  0
  6 10  1  0  0  0  0
  7 11  1  0  0  0  0
  7  9  1  0  0  0  0
  8 12  1  0  0  0  0
  8 10  2  0  0  0  0
  9 20  1  0  0  0  0
 10 21  1  0  0  0  0
 11 13  1  0  0  0  0
 12 14  1  0  0  0  0
 12 15  1  0  0  0  0
 12 22  1  0  0  0  0
 13 23  1  0  0  0  0
 13 24  1  0  0  0  0
 13 25  1  0  0  0  0
 14 16  1  0  0  0  0
 14 26  1  0  0  0  0
 14 27  1  0  0  0  0
 15 17  1  0  0  0  0
 15 28  1  0  0  0  0
 15 29  1  0  0  0  0
 16 18  1  0  0  0  0
 16 30  1  0  0  0  0
 16 31  1  0  0  0  0
 17 18  1  0  0  0  0
 17 32  1  0  0  0  0
 17 33  1  0  0  0  0
 18 34  1  0  0  0  0
 18 35  1  0  0  0  0
M  CHG  1  18   1
M  END
>  <Column 1>
COc1cc(Br)c2oc(C3CC[NH2+]CC3)cc2c1 ZINC000000001046

>  <Column 2>
Decoy66

>  <MMFF94 Energy>
14.378

$$$$
Decoy67
 OpenBabel07082414533D

 26 28  0  0  0  0  0  0  0  0999 V2000
   -4.8887    3.7317   -1.7758 Br  0  0  0  0  0  0  0  0  0  0  0  0
   -3.4393    2.6495   -1.2246 C   0  0  0  0  0  0  0  0  0  0  0  0
   -3.5764    1.8200   -0.1165 C   0  0  0  0  0  0  0  0  0  0  0  0
   -2.2401    2.6874   -1.9303 C   0  0  0  0  0  0  0  0  0  0  0  0
   -2.5014    1.0207    0.2852 C   0  0  0  0  0  0  0  0  0  0  0  0
   -1.1688    1.8863   -1.5200 C   0  0  0  0  0  0  0  0  0  0  0  0
   -1.2792    1.0409   -0.4045 C   0  0  0  0  0  0  0  0  0  0  0  0
   -0.1500    0.1781    0.0074 C   0  0  0  0  0  0  0  0  0  0  0  0
    0.2320   -0.1542    1.2774 C   0  0  0  0  0  0  0  0  0  0  0  0
    0.7745   -0.4694   -0.9775 C   0  0  0  0  0  0  0  0  0  0  0  0
   -0.2249    0.1577    2.4137 O   0  5  0  0  0  0  0  0  0  0  0  0
    1.4172   -1.0351    1.1213 C   0  0  0  0  0  0  0  0  0  0  0  0
    0.7594   -0.4105   -2.1949 O   0  0  0  0  0  0  0  0  0  0  0  0
    1.7398   -1.2223   -0.2078 C   0  0  0  0  0  0  0  0  0  0  0  0
    2.1960   -1.6561    2.0910 C   0  0  0  0  0  0  0  0  0  0  0  0
    2.8023   -1.9994   -0.6420 C   0  0  0  0  0  0  0  0  0  0  0  0
    3.2802   -2.4507    1.6939 C   0  0  0  0  0  0  0  0  0  0  0  0
    3.5821   -2.6219    0.3324 C   0  0  0  0  0  0  0  0  0  0  0  0
   -4.4660    1.7945    0.4060 H   0  0  0  0  0  0  0  0  0  0  0  0
   -2.1416    3.3035   -2.7523 H   0  0  0  0  0  0  0  0  0  0  0  0
   -2.6090    0.4036    1.1053 H   0  0  0  0  0  0  0  0  0  0  0  0
   -0.2818    1.9174   -2.0466 H   0  0  0  0  0  0  0  0  0  0  0  0
    1.9783   -1.5334    3.0923 H   0  0  0  0  0  0  0  0  0  0  0  0
    3.0082   -2.1129   -1.6469 H   0  0  0  0  0  0  0  0  0  0  0  0
    3.8625   -2.9146    2.4086 H   0  0  0  0  0  0  0  0  0  0  0  0
    4.3829   -3.2097    0.0527 H   0  0  0  0  0  0  0  0  0  0  0  0
  1  2  1  0  0  0  0
  2  3  2  0  0  0  0
  2  4  1  0  0  0  0
  3  5  1  0  0  0  0
  3 19  1  0  0  0  0
  4  6  2  0  0  0  0
  4 20  1  0  0  0  0
  5  7  2  0  0  0  0
  5 21  1  0  0  0  0
  6  7  1  0  0  0  0
  6 22  1  0  0  0  0
  7  8  1  0  0  0  0
  8  9  2  0  0  0  0
  8 10  1  0  0  0  0
  9 11  1  0  0  0  0
  9 12  1  0  0  0  0
 10 13  2  0  0  0  0
 10 14  1  0  0  0  0
 12 15  1  0  0  0  0
 12 14  2  0  0  0  0
 14 16  1  0  0  0  0
 15 17  2  0  0  0  0
 15 23  1  0  0  0  0
 16 18  2  0  0  0  0
 16 24  1  0  0  0  0
 17 18  1  0  0  0  0
 17 25  1  0  0  0  0
 18 26  1  0  0  0  0
M  CHG  1  11  -1
M  END
>  <Column 1>
O=C1C(c2ccc(Br)cc2)=C([O-])c2ccccc21 ZINC000000001055

>  <Column 2>
Decoy67

>  <MMFF94 Energy>
71.2

$$$$
Decoy68
 OpenBabel07082414533D

 20 21  0  0  0  0  0  0  0  0999 V2000
   -4.4023    0.3664   -1.9244 Br  0  0  0  0  0  0  0  0  0  0  0  0
   -2.7374    0.4155   -0.9600 C   0  0  0  0  0  0  0  0  0  0  0  0
   -1.6070   -0.3438   -1.3750 C   0  0  0  0  0  0  0  0  0  0  0  0
   -2.7357    1.2443    0.1596 C   0  0  0  0  0  0  0  0  0  0  0  0
   -1.6501   -1.0990   -2.4173 O   0  5  0  0  0  0  0  0  0  0  0  0
   -0.4291   -0.2097   -0.5585 C   0  0  0  0  0  0  0  0  0  0  0  0
   -1.5882    1.3527    0.9250 C   0  0  0  0  0  0  0  0  0  0  0  0
    0.7066   -0.8950   -0.8707 N   0  0  0  0  0  0  0  0  0  0  0  0
   -0.4232    0.6361    0.5862 C   0  0  0  0  0  0  0  0  0  0  0  0
   -1.6975    2.5161    2.4362 Br  0  0  0  0  0  0  0  0  0  0  0  0
    1.8285   -0.7964   -0.1324 C   0  0  0  0  0  0  0  0  0  0  0  0
    0.7704    0.7196    1.3428 C   0  0  0  0  0  0  0  0  0  0  0  0
    1.9024    0.0026    0.9859 C   0  0  0  0  0  0  0  0  0  0  0  0
    3.0088   -1.6000   -0.5803 C   0  0  0  0  0  0  0  0  0  0  0  0
   -3.5838    1.7734    0.4162 H   0  0  0  0  0  0  0  0  0  0  0  0
    0.7986    1.3265    2.1770 H   0  0  0  0  0  0  0  0  0  0  0  0
    2.7708    0.0659    1.5399 H   0  0  0  0  0  0  0  0  0  0  0  0
    2.7521   -2.1502   -1.4614 H   0  0  0  0  0  0  0  0  0  0  0  0
    3.2920   -2.2806    0.1953 H   0  0  0  0  0  0  0  0  0  0  0  0
    3.8263   -0.9438   -0.7951 H   0  0  0  0  0  0  0  0  0  0  0  0
  1  2  1  0  0  0  0
  2  3  2  0  0  0  0
  2  4  1  0  0  0  0
  3  5  1  0  0  0  0
  3  6  1  0  0  0  0
  4  7  2  0  0  0  0
  4 15  1  0  0  0  0
  6  8  2  0  0  0  0
  6  9  1  0  0  0  0
  7 10  1  0  0  0  0
  7  9  1  0  0  0  0
  8 11  1  0  0  0  0
  9 12  2  0  0  0  0
 11 13  2  0  0  0  0
 11 14  1  0  0  0  0
 12 13  1  0  0  0  0
 12 16  1  0  0  0  0
 13 17  1  0  0  0  0
 14 18  1  0  0  0  0
 14 19  1  0  0  0  0
 14 20  1  0  0  0  0
M  CHG  1   5  -1
M  END
>  <Column 1>
Cc1ccc2c(Br)cc(Br)c([O-])c2n1 ZINC000000001061

>  <Column 2>
Decoy68

>  <MMFF94 Energy>
76.243

$$$$
Decoy69
 OpenBabel07082414533D

 17 18  0  0  0  0  0  0  0  0999 V2000
   -2.1952    3.5689    1.0057 Br  0  0  0  0  0  0  0  0  0  0  0  0
   -1.2881    1.9266    0.5772 C   0  0  0  0  0  0  0  0  0  0  0  0
    0.1158    1.8832    0.3455 C   0  0  0  0  0  0  0  0  0  0  0  0
   -2.1111    0.8046    0.5149 C   0  0  0  0  0  0  0  0  0  0  0  0
    0.8417    2.9447    0.4130 O   0  5  0  0  0  0  0  0  0  0  0  0
    0.6588    0.5874    0.0350 C   0  0  0  0  0  0  0  0  0  0  0  0
   -1.5605   -0.4285    0.2140 C   0  0  0  0  0  0  0  0  0  0  0  0
    1.9921    0.4394   -0.2035 N   0  0  0  0  0  0  0  0  0  0  0  0
   -0.1794   -0.5632   -0.0299 C   0  0  0  0  0  0  0  0  0  0  0  0
   -2.7804   -1.8968    0.1552 Br  0  0  0  0  0  0  0  0  0  0  0  0
    2.5215   -0.7602   -0.4953 C   0  0  0  0  0  0  0  0  0  0  0  0
    0.4222   -1.8082   -0.3410 C   0  0  0  0  0  0  0  0  0  0  0  0
    1.7836   -1.9121   -0.5764 C   0  0  0  0  0  0  0  0  0  0  0  0
   -3.1240    0.8924    0.6919 H   0  0  0  0  0  0  0  0  0  0  0  0
    3.5374   -0.8173   -0.6675 H   0  0  0  0  0  0  0  0  0  0  0  0
   -0.1658   -2.6547   -0.3933 H   0  0  0  0  0  0  0  0  0  0  0  0
    2.2230   -2.8179   -0.8031 H   0  0  0  0  0  0  0  0  0  0  0  0
  1  2  1  0  0  0  0
  2  3  2  0  0  0  0
  2  4  1  0  0  0  0
  3  5  1  0  0  0  0
  3  6  1  0  0  0  0
  4  7  2  0  0  0  0
  4 14  1  0  0  0  0
  6  8  2  0  0  0  0
  6  9  1  0  0  0  0
  7 10  1  0  0  0  0
  7  9  1  0  0  0  0
  8 11  1  0  0  0  0
  9 12  2  0  0  0  0
 11 13  2  0  0  0  0
 11 15  1  0  0  0  0
 12 13  1  0  0  0  0
 12 16  1  0  0  0  0
 13 17  1  0  0  0  0
M  CHG  1   5  -1
M  END
>  <Column 1>
[O-]c1c(Br)cc(Br)c2cccnc12 ZINC000000001064

>  <Column 2>
Decoy69

>  <MMFF94 Energy>
74.687

$$$$
Decoy70
 OpenBabel07082414533D

 38 39  0  0  0  0  0  0  0  0999 V2000
    1.0046   -2.2841   -2.5584 Cl  0  0  0  0  0  0  0  0  0  0  0  0
    0.1729   -1.2148   -1.4814 C   0  0  0  0  0  0  0  0  0  0  0  0
    0.8246   -0.5473   -0.4276 C   0  0  0  0  0  0  0  0  0  0  0  0
   -1.1980   -1.0382   -1.7054 C   0  0  0  0  0  0  0  0  0  0  0  0
    0.0486    0.2996    0.3872 C   0  0  0  0  0  0  0  0  0  0  0  0
    2.3129   -0.7047   -0.1412 C   0  0  0  0  0  0  0  0  0  0  0  0
   -1.9543   -0.1927   -0.8859 C   0  0  0  0  0  0  0  0  0  0  0  0
   -1.3210    0.4760    0.1635 C   0  0  0  0  0  0  0  0  0  0  0  0
    3.0700    0.6277   -0.2979 C   0  0  0  0  0  0  0  0  0  0  0  0
    2.5664   -1.3208    1.2478 C   0  0  0  0  0  0  0  0  0  0  0  0
   -3.4168   -0.0386   -1.1681 C   0  0  0  0  0  0  0  0  0  0  0  0
    4.5621    0.4583   -0.0156 C   0  0  0  0  0  0  0  0  0  0  0  0
    4.0609   -1.4810    1.5228 C   0  0  0  0  0  0  0  0  0  0  0  0
   -3.9010   -0.6616   -2.1111 O   0  0  0  0  0  0  0  0  0  0  0  0
   -4.2213    0.8820   -0.2697 C   0  0  0  0  0  0  0  0  0  0  0  0
    4.8088   -0.1613    1.3569 C   0  0  0  0  0  0  0  0  0  0  0  0
   -5.6942    0.9688   -0.6400 C   0  0  0  0  0  0  0  0  0  0  0  0
   -6.4634    1.9063    0.2913 C   0  0  0  0  0  0  0  0  0  0  0  0
   -7.6940    2.0139    0.0260 O   0  0  0  0  0  0  0  0  0  0  0  0
   -5.7939    2.4606    1.2082 O   0  5  0  0  0  0  0  0  0  0  0  0
   -1.6560   -1.5374   -2.4839 H   0  0  0  0  0  0  0  0  0  0  0  0
    0.5007    0.8016    1.1673 H   0  0  0  0  0  0  0  0  0  0  0  0
    2.6965   -1.3844   -0.8732 H   0  0  0  0  0  0  0  0  0  0  0  0
   -1.8654    1.1028    0.7765 H   0  0  0  0  0  0  0  0  0  0  0  0
    2.6647    1.3412    0.3888 H   0  0  0  0  0  0  0  0  0  0  0  0
    2.9545    0.9637   -1.3072 H   0  0  0  0  0  0  0  0  0  0  0  0
    2.0992   -2.2824    1.2926 H   0  0  0  0  0  0  0  0  0  0  0  0
    2.1566   -0.6646    1.9869 H   0  0  0  0  0  0  0  0  0  0  0  0
    5.0334    1.4182   -0.0528 H   0  0  0  0  0  0  0  0  0  0  0  0
    4.9699   -0.1974   -0.7563 H   0  0  0  0  0  0  0  0  0  0  0  0
    4.4649   -2.1972    0.8381 H   0  0  0  0  0  0  0  0  0  0  0  0
    4.1812   -1.8082    2.5344 H   0  0  0  0  0  0  0  0  0  0  0  0
   -3.8002    1.8638   -0.3291 H   0  0  0  0  0  0  0  0  0  0  0  0
   -4.1721    0.4741    0.7183 H   0  0  0  0  0  0  0  0  0  0  0  0
    4.4775    0.5222    2.1106 H   0  0  0  0  0  0  0  0  0  0  0  0
    5.8565   -0.3574    1.4510 H   0  0  0  0  0  0  0  0  0  0  0  0
   -6.1243   -0.0090   -0.5784 H   0  0  0  0  0  0  0  0  0  0  0  0
   -5.7632    1.3595   -1.6337 H   0  0  0  0  0  0  0  0  0  0  0  0
  1  2  1  0  0  0  0
  2  3  2  0  0  0  0
  2  4  1  0  0  0  0
  3  5  1  0  0  0  0
  3  6  1  0  0  0  0
  4  7  2  0  0  0  0
  4 21  1  0  0  0  0
  5  8  2  0  0  0  0
  5 22  1  0  0  0  0
  6  9  1  0  0  0  0
  6 10  1  0  0  0  0
  6 23  1  0  0  0  0
  7 11  1  0  0  0  0
  7  8  1  0  0  0  0
  8 24  1  0  0  0  0
  9 12  1  0  0  0  0
  9 25  1  0  0  0  0
  9 26  1  0  0  0  0
 10 13  1  0  0  0  0
 10 27  1  0  0  0  0
 10 28  1  0  0  0  0
 11 14  2  0  0  0  0
 11 15  1  0  0  0  0
 12 16  1  0  0  0  0
 12 29  1  0  0  0  0
 12 30  1  0  0  0  0
 13 16  1  0  0  0  0
 13 31  1  0  0  0  0
 13 32  1  0  0  0  0
 15 17  1  0  0  0  0
 15 33  1  0  0  0  0
 15 34  1  0  0  0  0
 16 35  1  0  0  0  0
 16 36  1  0  0  0  0
 17 18  1  0  0  0  0
 17 37  1  0  0  0  0
 17 38  1  0  0  0  0
 18 19  2  0  0  0  0
 18 20  1  0  0  0  0
M  CHG  1  20  -1
M  END
>  <Column 1>
O=C([O-])CCC(=O)c1ccc(C2CCCCC2)c(Cl)c1 ZINC000000001067

>  <Column 2>
Decoy70

>  <MMFF94 Energy>
31.23

$$$$
Decoy71
 OpenBabel07082414533D

 37 38  0  0  0  0  0  0  0  0999 V2000
    0.8293   -2.0279    7.4797 Cl  0  0  0  0  0  0  0  0  0  0  0  0
    0.7338   -1.5547    5.8263 C   0  0  0  0  0  0  0  0  0  0  0  0
   -0.3261   -0.7543    5.3962 C   0  0  0  0  0  0  0  0  0  0  0  0
    1.7184   -1.9779    4.9303 C   0  0  0  0  0  0  0  0  0  0  0  0
   -0.4034   -0.3693    4.0566 C   0  0  0  0  0  0  0  0  0  0  0  0
    1.6462   -1.5970    3.5889 C   0  0  0  0  0  0  0  0  0  0  0  0
    0.5866   -0.7896    3.1613 C   0  0  0  0  0  0  0  0  0  0  0  0
    0.4768   -0.3028    1.4306 S   0  0  0  0  0  0  0  0  0  0  0  0
    1.0188    1.0460    1.4324 O   0  0  0  0  0  0  0  0  0  0  0  0
    1.1589   -1.3681    0.7092 O   0  0  0  0  0  0  0  0  0  0  0  0
   -1.1094   -0.3506    1.1730 N   0  3  0  0  0  0  0  0  0  0  0  0
   -1.6866    0.1431    0.1395 C   0  0  0  0  0  0  0  0  0  0  0  0
   -2.9034    0.2410   -0.0663 O   0  5  0  0  0  0  0  0  0  0  0  0
   -1.1614    0.7056   -0.9834 N   0  0  0  0  0  0  0  0  0  0  0  0
   -0.3378   -0.0715   -1.9130 C   0  0  0  0  0  0  0  0  0  0  0  0
    0.9436    0.7078   -2.2335 C   0  0  0  0  0  0  0  0  0  0  0  0
   -1.1199   -0.4002   -3.1964 C   0  0  0  0  0  0  0  0  0  0  0  0
    0.6924    1.9276   -3.1192 C   0  0  0  0  0  0  0  0  0  0  0  0
   -1.3482    0.8141   -4.0972 C   0  0  0  0  0  0  0  0  0  0  0  0
   -0.0468    1.5492   -4.3976 C   0  0  0  0  0  0  0  0  0  0  0  0
   -1.0494   -0.4485    6.0658 H   0  0  0  0  0  0  0  0  0  0  0  0
    2.4969   -2.5704    5.2588 H   0  0  0  0  0  0  0  0  0  0  0  0
   -1.1844    0.2205    3.7292 H   0  0  0  0  0  0  0  0  0  0  0  0
    2.3674   -1.9080    2.9194 H   0  0  0  0  0  0  0  0  0  0  0  0
   -1.6736   -0.7866    1.8518 H   0  0  0  0  0  0  0  0  0  0  0  0
   -1.3388    1.6549   -1.1749 H   0  0  0  0  0  0  0  0  0  0  0  0
   -0.0731   -1.0005   -1.4528 H   0  0  0  0  0  0  0  0  0  0  0  0
    1.6237    0.0538   -2.7381 H   0  0  0  0  0  0  0  0  0  0  0  0
    1.3446    1.0613   -1.3066 H   0  0  0  0  0  0  0  0  0  0  0  0
   -2.0726   -0.8009   -2.9196 H   0  0  0  0  0  0  0  0  0  0  0  0
   -0.5326   -1.1002   -3.7532 H   0  0  0  0  0  0  0  0  0  0  0  0
    1.6324    2.3679   -3.3788 H   0  0  0  0  0  0  0  0  0  0  0  0
    0.0850    2.6188   -2.5731 H   0  0  0  0  0  0  0  0  0  0  0  0
   -2.0209    1.4869   -3.6076 H   0  0  0  0  0  0  0  0  0  0  0  0
   -1.7564    0.4685   -5.0239 H   0  0  0  0  0  0  0  0  0  0  0  0
    0.5818    0.9153   -4.9874 H   0  0  0  0  0  0  0  0  0  0  0  0
   -0.2850    2.4491   -4.9251 H   0  0  0  0  0  0  0  0  0  0  0  0
  1  2  1  0  0  0  0
  2  3  2  0  0  0  0
  2  4  1  0  0  0  0
  3  5  1  0  0  0  0
  3 21  1  0  0  0  0
  4  6  2  0  0  0  0
  4 22  1  0  0  0  0
  5  7  2  0  0  0  0
  5 23  1  0  0  0  0
  6  7  1  0  0  0  0
  6 24  1  0  0  0  0
  7  8  1  0  0  0  0
  8  9  2  0  0  0  0
  8 10  2  0  0  0  0
  8 11  1  0  0  0  0
 11 12  2  0  0  0  0
 11 25  1  0  0  0  0
 12 13  1  0  0  0  0
 12 14  1  0  0  0  0
 14 15  1  0  0  0  0
 14 26  1  0  0  0  0
 15 16  1  0  0  0  0
 15 17  1  0  0  0  0
 15 27  1  0  0  0  0
 16 18  1  0  0  0  0
 16 28  1  0  0  0  0
 16 29  1  0  0  0  0
 17 19  1  0  0  0  0
 17 30  1  0  0  0  0
 17 31  1  0  0  0  0
 18 20  1  0  0  0  0
 18 32  1  0  0  0  0
 18 33  1  0  0  0  0
 19 20  1  0  0  0  0
 19 34  1  0  0  0  0
 19 35  1  0  0  0  0
 20 36  1  0  0  0  0
 20 37  1  0  0  0  0
M  CHG  2  11   1  13  -1
M  END
>  <Column 1>
O=S(=O)(N=C([O-])NC1CCCCC1)c1ccc(Cl)cc1 ZINC000000001121

>  <Column 2>
Decoy71

>  <MMFF94 Energy>
-55.687

$$$$
Decoy72
 OpenBabel07082414533D

 17 18  0  0  0  0  0  0  0  0999 V2000
   -1.4382   -3.5081    1.7980 Cl  0  0  0  0  0  0  0  0  0  0  0  0
   -0.8390   -2.0880    0.9670 C   0  0  0  0  0  0  0  0  0  0  0  0
   -0.6109   -0.8576    1.6488 C   0  0  0  0  0  0  0  0  0  0  0  0
   -0.6088   -2.2626   -0.3945 C   0  0  0  0  0  0  0  0  0  0  0  0
   -0.8362   -0.7347    2.9111 O   0  5  0  0  0  0  0  0  0  0  0  0
   -0.1175    0.2247    0.8391 C   0  0  0  0  0  0  0  0  0  0  0  0
   -0.1347   -1.2036   -1.1451 C   0  0  0  0  0  0  0  0  0  0  0  0
    0.1341    1.4443    1.3920 N   0  0  0  0  0  0  0  0  0  0  0  0
    0.1184    0.0478   -0.5531 C   0  0  0  0  0  0  0  0  0  0  0  0
    0.1248   -1.5090   -2.8367 Cl  0  0  0  0  0  0  0  0  0  0  0  0
    0.5951    2.4668    0.6514 C   0  0  0  0  0  0  0  0  0  0  0  0
    0.6045    1.1512   -1.2972 C   0  0  0  0  0  0  0  0  0  0  0  0
    0.8464    2.3740   -0.6930 C   0  0  0  0  0  0  0  0  0  0  0  0
   -0.7907   -3.1756   -0.8399 H   0  0  0  0  0  0  0  0  0  0  0  0
    0.7691    3.3698    1.1198 H   0  0  0  0  0  0  0  0  0  0  0  0
    0.7816    1.0419   -2.3080 H   0  0  0  0  0  0  0  0  0  0  0  0
    1.2004    3.1800   -1.2315 H   0  0  0  0  0  0  0  0  0  0  0  0
  1  2  1  0  0  0  0
  2  3  2  0  0  0  0
  2  4  1  0  0  0  0
  3  5  1  0  0  0  0
  3  6  1  0  0  0  0
  4  7  2  0  0  0  0
  4 14  1  0  0  0  0
  6  8  2  0  0  0  0
  6  9  1  0  0  0  0
  7 10  1  0  0  0  0
  7  9  1  0  0  0  0
  8 11  1  0  0  0  0
  9 12  2  0  0  0  0
 11 13  2  0  0  0  0
 11 15  1  0  0  0  0
 12 13  1  0  0  0  0
 12 16  1  0  0  0  0
 13 17  1  0  0  0  0
M  CHG  1   5  -1
M  END
>  <Column 1>
[O-]c1c(Cl)cc(Cl)c2cccnc12 ZINC000000001131

>  <Column 2>
Decoy72

>  <MMFF94 Energy>
72.299

$$$$
Decoy73
 OpenBabel07082414533D

 47 49  0  0  0  0  0  0  0  0999 V2000
   -2.7840    0.4487   -4.4929 N   0  0  0  0  0  0  0  0  0  0  0  0
   -2.2143    1.0023   -3.6472 C   0  0  0  0  0  0  0  0  0  0  0  0
   -1.5285    1.5765   -2.5297 C   0  0  0  0  0  0  0  0  0  0  0  0
   -0.7483    0.7489   -1.7165 C   0  0  0  0  0  0  0  0  0  0  0  0
   -1.6624    2.9248   -2.2131 C   0  0  0  0  0  0  0  0  0  0  0  0
   -0.1222    1.2364   -0.5580 C   0  0  0  0  0  0  0  0  0  0  0  0
   -1.0038    3.4370   -1.0941 C   0  0  0  0  0  0  0  0  0  0  0  0
    0.5652    0.3014    0.2618 N   0  0  0  0  0  0  0  0  0  0  0  0
   -0.2273    2.6034   -0.2673 C   0  0  0  0  0  0  0  0  0  0  0  0
    1.9277    0.4420    0.6759 C   0  0  0  0  0  0  0  0  0  0  0  0
   -0.2684   -0.1192    1.4255 C   0  0  0  0  0  0  0  0  0  0  0  0
    0.5286    3.2014    0.8876 C   0  0  0  0  0  0  0  0  0  0  0  0
    2.6106    1.6589    0.8661 C   0  0  0  0  0  0  0  0  0  0  0  0
    2.6474   -0.7634    0.8666 C   0  0  0  0  0  0  0  0  0  0  0  0
   -1.4262   -1.0404    1.0102 C   0  0  0  0  0  0  0  0  0  0  0  0
    2.0303    3.0446    0.6810 C   0  0  0  0  0  0  0  0  0  0  0  0
    3.9777    1.6225    1.2300 C   0  0  0  0  0  0  0  0  0  0  0  0
    3.9903   -0.7767    1.2416 C   0  0  0  0  0  0  0  0  0  0  0  0
   -0.9192   -2.3208    0.3555 C   0  0  0  0  0  0  0  0  0  0  0  0
    4.6577    0.4223    1.4237 C   0  0  0  0  0  0  0  0  0  0  0  0
   -2.0792   -3.2070   -0.0714 N   0  3  0  0  0  0  0  0  0  0  0  0
   -1.6317   -4.6336   -0.2682 C   0  0  0  0  0  0  0  0  0  0  0  0
   -2.7955   -2.7047   -1.3016 C   0  0  0  0  0  0  0  0  0  0  0  0
   -0.6298   -0.2435   -1.9737 H   0  0  0  0  0  0  0  0  0  0  0  0
   -2.2444    3.5416   -2.8013 H   0  0  0  0  0  0  0  0  0  0  0  0
   -1.0873    4.4409   -0.8698 H   0  0  0  0  0  0  0  0  0  0  0  0
   -0.6738    0.7542    1.8920 H   0  0  0  0  0  0  0  0  0  0  0  0
    0.3596   -0.6653    2.0980 H   0  0  0  0  0  0  0  0  0  0  0  0
    0.2435    2.7034    1.7907 H   0  0  0  0  0  0  0  0  0  0  0  0
    0.2950    4.2436    0.9516 H   0  0  0  0  0  0  0  0  0  0  0  0
    2.1611   -1.6623    0.7231 H   0  0  0  0  0  0  0  0  0  0  0  0
   -2.0519   -0.5198    0.3157 H   0  0  0  0  0  0  0  0  0  0  0  0
   -1.9721   -1.3087    1.8905 H   0  0  0  0  0  0  0  0  0  0  0  0
    2.5208    3.6948    1.3749 H   0  0  0  0  0  0  0  0  0  0  0  0
    2.1937    3.2777   -0.3504 H   0  0  0  0  0  0  0  0  0  0  0  0
    4.4861    2.5118    1.3556 H   0  0  0  0  0  0  0  0  0  0  0  0
    4.4825   -1.6728    1.3822 H   0  0  0  0  0  0  0  0  0  0  0  0
   -0.3094   -2.8542    1.0545 H   0  0  0  0  0  0  0  0  0  0  0  0
   -0.3506   -2.0595   -0.5125 H   0  0  0  0  0  0  0  0  0  0  0  0
    5.6518    0.4270    1.7009 H   0  0  0  0  0  0  0  0  0  0  0  0
   -2.7526   -3.1718    0.6939 H   0  0  0  0  0  0  0  0  0  0  0  0
   -0.9246   -4.6782   -1.0701 H   0  0  0  0  0  0  0  0  0  0  0  0
   -2.4784   -5.2436   -0.5049 H   0  0  0  0  0  0  0  0  0  0  0  0
   -1.1746   -4.9912    0.6307 H   0  0  0  0  0  0  0  0  0  0  0  0
   -2.1263   -2.7228   -2.1363 H   0  0  0  0  0  0  0  0  0  0  0  0
   -3.1306   -1.7023   -1.1348 H   0  0  0  0  0  0  0  0  0  0  0  0
   -3.6373   -3.3329   -1.5056 H   0  0  0  0  0  0  0  0  0  0  0  0
  1  2  3  0  0  0  0
  2  3  1  0  0  0  0
  3  4  2  0  0  0  0
  3  5  1  0  0  0  0
  4  6  1  0  0  0  0
  4 24  1  0  0  0  0
  5  7  2  0  0  0  0
  5 25  1  0  0  0  0
  6  8  1  0  0  0  0
  6  9  2  0  0  0  0
  7  9  1  0  0  0  0
  7 26  1  0  0  0  0
  8 10  1  0  0  0  0
  8 11  1  0  0  0  0
  9 12  1  0  0  0  0
 10 13  2  0  0  0  0
 10 14  1  0  0  0  0
 11 15  1  0  0  0  0
 11 27  1  0  0  0  0
 11 28  1  0  0  0  0
 12 16  1  0  0  0  0
 12 29  1  0  0  0  0
 12 30  1  0  0  0  0
 13 17  1  0  0  0  0
 13 16  1  0  0  0  0
 14 18  2  0  0  0  0
 14 31  1  0  0  0  0
 15 19  1  0  0  0  0
 15 32  1  0  0  0  0
 15 33  1  0  0  0  0
 16 34  1  0  0  0  0
 16 35  1  0  0  0  0
 17 20  2  0  0  0  0
 17 36  1  0  0  0  0
 18 20  1  0  0  0  0
 18 37  1  0  0  0  0
 19 21  1  0  0  0  0
 19 38  1  0  0  0  0
 19 39  1  0  0  0  0
 20 40  1  0  0  0  0
 21 22  1  0  0  0  0
 21 23  1  0  0  0  0
 21 41  1  0  0  0  0
 22 42  1  0  0  0  0
 22 43  1  0  0  0  0
 22 44  1  0  0  0  0
 23 45  1  0  0  0  0
 23 46  1  0  0  0  0
 23 47  1  0  0  0  0
M  CHG  1  21   1
M  END
>  <Column 1>
C[NH+](C)CCCN1c2ccccc2CCc2ccc(C#N)cc21 ZINC000000001141

>  <Column 2>
Decoy73

>  <MMFF94 Energy>
69.905

$$$$
Decoy74
 OpenBabel07082414533D

 31 32  0  0  0  0  0  0  0  0999 V2000
   -1.9100   -3.7313   -1.0911 O   0  0  0  0  0  0  0  0  0  0  0  0
   -1.2957   -2.6747   -1.2511 C   0  0  0  0  0  0  0  0  0  0  0  0
   -0.8961   -1.7266   -0.2978 N   0  0  0  0  0  0  0  0  0  0  0  0
   -0.9098   -2.3318   -2.6515 C   0  0  0  0  0  0  0  0  0  0  0  0
   -1.2248   -1.9865    1.0249 O   0  5  0  0  0  0  0  0  0  0  0  0
   -0.2001   -0.5526   -0.5734 C   0  0  0  0  0  0  0  0  0  0  0  0
   -0.2398   -1.2060   -2.9339 C   0  0  0  0  0  0  0  0  0  0  0  0
    0.1186   -0.3019   -1.8619 C   0  0  0  0  0  0  0  0  0  0  0  0
    0.2220    0.4640    0.4944 C   0  0  0  0  0  0  0  0  0  0  0  0
    0.1644   -0.8276   -4.3227 C   0  0  0  0  0  0  0  0  0  0  0  0
    1.2656   -0.0613    1.5001 C   0  0  0  0  0  0  0  0  0  0  0  0
   -0.9502    1.1807    1.1936 C   0  0  0  0  0  0  0  0  0  0  0  0
    1.7366    1.0463    2.4437 C   0  0  0  0  0  0  0  0  0  0  0  0
   -0.4504    2.2721    2.1412 C   0  0  0  0  0  0  0  0  0  0  0  0
    0.5647    1.7294    3.1429 C   0  0  0  0  0  0  0  0  0  0  0  0
   -1.1640   -2.9746   -3.4178 H   0  0  0  0  0  0  0  0  0  0  0  0
    0.6345    0.5625   -2.0894 H   0  0  0  0  0  0  0  0  0  0  0  0
    0.7230    1.2166   -0.0779 H   0  0  0  0  0  0  0  0  0  0  0  0
   -0.1634   -1.5816   -5.0075 H   0  0  0  0  0  0  0  0  0  0  0  0
    1.2296   -0.7393   -4.3726 H   0  0  0  0  0  0  0  0  0  0  0  0
   -0.2837    0.1088   -4.5819 H   0  0  0  0  0  0  0  0  0  0  0  0
    2.1082   -0.4414    0.9611 H   0  0  0  0  0  0  0  0  0  0  0  0
    0.8109   -0.8326    2.0859 H   0  0  0  0  0  0  0  0  0  0  0  0
   -1.5124    0.4634    1.7542 H   0  0  0  0  0  0  0  0  0  0  0  0
   -1.5607    1.6389    0.4438 H   0  0  0  0  0  0  0  0  0  0  0  0
    2.2766    1.7769    1.8784 H   0  0  0  0  0  0  0  0  0  0  0  0
    2.3593    0.6035    3.1927 H   0  0  0  0  0  0  0  0  0  0  0  0
   -1.2846    2.6748    2.6767 H   0  0  0  0  0  0  0  0  0  0  0  0
    0.0305    3.0274    1.5554 H   0  0  0  0  0  0  0  0  0  0  0  0
    0.9377    2.5404    3.7328 H   0  0  0  0  0  0  0  0  0  0  0  0
    0.0731    1.0038    3.7566 H   0  0  0  0  0  0  0  0  0  0  0  0
  1  2  2  0  0  0  0
  2  3  1  0  0  0  0
  2  4  1  0  0  0  0
  3  5  1  0  0  0  0
  3  6  1  0  0  0  0
  4  7  2  0  0  0  0
  4 16  1  0  0  0  0
  6  8  2  0  0  0  0
  6  9  1  0  0  0  0
  7 10  1  0  0  0  0
  7  8  1  0  0  0  0
  8 17  1  0  0  0  0
  9 11  1  0  0  0  0
  9 12  1  0  0  0  0
  9 18  1  0  0  0  0
 10 19  1  0  0  0  0
 10 20  1  0  0  0  0
 10 21  1  0  0  0  0
 11 13  1  0  0  0  0
 11 22  1  0  0  0  0
 11 23  1  0  0  0  0
 12 14  1  0  0  0  0
 12 24  1  0  0  0  0
 12 25  1  0  0  0  0
 13 15  1  0  0  0  0
 13 26  1  0  0  0  0
 13 27  1  0  0  0  0
 14 15  1  0  0  0  0
 14 28  1  0  0  0  0
 14 29  1  0  0  0  0
 15 30  1  0  0  0  0
 15 31  1  0  0  0  0
M  CHG  1   5  -1
M  END
>  <Column 1>
Cc1cc(C2CCCCC2)n([O-])c(=O)c1 ZINC000000001145

>  <Column 2>
Decoy74

>  <MMFF94 Energy>
56.139

$$$$
Decoy75
 OpenBabel07082414533D

 27 27  0  0  0  0  0  0  0  0999 V2000
    1.2861   -2.5733   -1.4699 O   0  0  0  0  0  0  0  0  0  0  0  0
    0.5639   -3.2612   -0.6990 C   0  0  0  0  0  0  0  0  0  0  0  0
    0.1010   -4.4287   -0.8501 O   0  5  0  0  0  0  0  0  0  0  0  0
    0.2234   -2.6383    0.6627 C   0  0  0  0  0  0  0  0  0  0  0  0
   -0.0407   -1.3521    0.9741 C   0  0  0  0  0  0  0  0  0  0  0  0
   -0.0877   -0.2341   -0.0624 C   0  0  0  0  0  0  0  0  0  0  0  0
   -0.3053   -0.9840    2.4105 C   0  0  0  0  0  0  0  0  0  0  0  0
    1.1959    0.6136   -0.0287 C   0  0  0  0  0  0  0  0  0  0  0  0
   -1.3301    0.6676    0.0779 C   0  0  0  0  0  0  0  0  0  0  0  0
    1.1712    1.7094   -1.0938 C   0  0  0  0  0  0  0  0  0  0  0  0
   -1.3516    1.7568   -0.9941 C   0  0  0  0  0  0  0  0  0  0  0  0
   -0.0714    2.5866   -0.9747 C   0  0  0  0  0  0  0  0  0  0  0  0
    0.1920   -3.2993    1.4546 H   0  0  0  0  0  0  0  0  0  0  0  0
   -0.1587   -0.7180   -1.0141 H   0  0  0  0  0  0  0  0  0  0  0  0
   -0.2402   -1.8603    3.0211 H   0  0  0  0  0  0  0  0  0  0  0  0
   -1.2848   -0.5618    2.4959 H   0  0  0  0  0  0  0  0  0  0  0  0
    0.4211   -0.2684    2.7349 H   0  0  0  0  0  0  0  0  0  0  0  0
    2.0378   -0.0230   -0.2042 H   0  0  0  0  0  0  0  0  0  0  0  0
    1.2651    1.0802    0.9317 H   0  0  0  0  0  0  0  0  0  0  0  0
   -1.3182    1.1292    1.0432 H   0  0  0  0  0  0  0  0  0  0  0  0
   -2.2028    0.0600   -0.0413 H   0  0  0  0  0  0  0  0  0  0  0  0
    1.1813    1.2525   -2.0613 H   0  0  0  0  0  0  0  0  0  0  0  0
    2.0314    2.3299   -0.9529 H   0  0  0  0  0  0  0  0  0  0  0  0
   -2.1867    2.4020   -0.8174 H   0  0  0  0  0  0  0  0  0  0  0  0
   -1.4307    1.2843   -1.9509 H   0  0  0  0  0  0  0  0  0  0  0  0
   -0.0909    3.2735   -1.7949 H   0  0  0  0  0  0  0  0  0  0  0  0
   -0.0247    3.1062   -0.0405 H   0  0  0  0  0  0  0  0  0  0  0  0
  1  2  2  0  0  0  0
  2  3  1  0  0  0  0
  2  4  1  0  0  0  0
  4  5  2  0  0  0  0
  4 13  1  0  0  0  0
  5  6  1  0  0  0  0
  5  7  1  0  0  0  0
  6  8  1  0  0  0  0
  6  9  1  0  0  0  0
  6 14  1  0  0  0  0
  7 15  1  0  0  0  0
  7 16  1  0  0  0  0
  7 17  1  0  0  0  0
  8 10  1  0  0  0  0
  8 18  1  0  0  0  0
  8 19  1  0  0  0  0
  9 11  1  0  0  0  0
  9 20  1  0  0  0  0
  9 21  1  0  0  0  0
 10 12  1  0  0  0  0
 10 22  1  0  0  0  0
 10 23  1  0  0  0  0
 11 12  1  0  0  0  0
 11 24  1  0  0  0  0
 11 25  1  0  0  0  0
 12 26  1  0  0  0  0
 12 27  1  0  0  0  0
M  CHG  1   3  -1
M  END
>  <Column 1>
C/C(=C/C(=O)[O-])C1CCCCC1 ZINC000000001147

>  <Column 2>
Decoy75

>  <MMFF94 Energy>
12.443

$$$$
Decoy76
 OpenBabel07082414533D

 34 36  0  0  1  0  0  0  0  0999 V2000
   -1.0084    1.3753   -2.2011 N   0  3  1  0  0  0  0  0  0  0  0  0
   -0.2953    0.1525   -1.6122 C   0  0  0  0  0  0  0  0  0  0  0  0
   -0.5722    2.6985   -1.5851 C   0  0  0  0  0  0  0  0  0  0  0  0
   -0.9030    1.4016   -3.7029 C   0  0  0  0  0  0  0  0  0  0  0  0
   -0.5180    0.1772   -0.1193 C   0  0  1  0  0  0  0  0  0  0  0  0
   -0.6694    2.6607   -0.0588 C   0  0  0  0  0  0  0  0  0  0  0  0
    0.1199   -0.7986    0.8019 C   0  0  0  0  0  0  0  0  0  0  0  0
    0.1118    1.4647    0.4442 C   0  0  1  0  0  0  0  0  0  0  0  0
    0.4488   -0.1008    1.9770 C   0  0  0  0  0  0  0  0  0  0  0  0
    0.3161   -2.1624    0.6904 C   0  0  0  0  0  0  0  0  0  0  0  0
    0.1240    1.2960    1.9004 N   0  0  0  0  0  0  0  0  0  0  0  0
    0.9366   -0.7614    3.0837 C   0  0  0  0  0  0  0  0  0  0  0  0
    0.8655   -2.8410    1.7885 C   0  0  0  0  0  0  0  0  0  0  0  0
    1.1546   -2.1387    2.9801 C   0  0  0  0  0  0  0  0  0  0  0  0
    1.0684   -4.3292    1.7346 C   0  0  0  0  0  0  0  0  0  0  0  0
   -1.9916    1.2694   -1.9511 H   0  0  0  0  0  0  0  0  0  0  0  0
    0.7518    0.2010   -1.8268 H   0  0  0  0  0  0  0  0  0  0  0  0
   -0.6801   -0.7509   -2.0372 H   0  0  0  0  0  0  0  0  0  0  0  0
   -1.2027    3.4798   -1.9551 H   0  0  0  0  0  0  0  0  0  0  0  0
    0.4482    2.8758   -1.8540 H   0  0  0  0  0  0  0  0  0  0  0  0
    0.1228    1.5123   -3.9866 H   0  0  0  0  0  0  0  0  0  0  0  0
   -1.4698    2.2244   -4.0859 H   0  0  0  0  0  0  0  0  0  0  0  0
   -1.2871    0.4868   -4.1035 H   0  0  0  0  0  0  0  0  0  0  0  0
   -1.5737    0.0027   -0.1160 H   0  0  0  0  0  0  0  0  0  0  0  0
   -1.6943    2.5717    0.2353 H   0  0  0  0  0  0  0  0  0  0  0  0
   -0.2674    3.5614    0.3561 H   0  0  0  0  0  0  0  0  0  0  0  0
    1.1162    1.6416    0.1205 H   0  0  0  0  0  0  0  0  0  0  0  0
    0.0659   -2.6663   -0.1748 H   0  0  0  0  0  0  0  0  0  0  0  0
   -0.0421    1.9500    2.6173 H   0  0  0  0  0  0  0  0  0  0  0  0
    1.1347   -0.2556    3.9612 H   0  0  0  0  0  0  0  0  0  0  0  0
    1.5344   -2.6528    3.7904 H   0  0  0  0  0  0  0  0  0  0  0  0
    0.8015   -4.6906    0.7635 H   0  0  0  0  0  0  0  0  0  0  0  0
    0.4525   -4.8001    2.4721 H   0  0  0  0  0  0  0  0  0  0  0  0
    2.0956   -4.5564    1.9299 H   0  0  0  0  0  0  0  0  0  0  0  0
  1  2  1  0  0  0  0
  1  3  1  0  0  0  0
  1  4  1  0  0  0  0
  1 16  1  1  0  0  0
  2  5  1  0  0  0  0
  2 17  1  0  0  0  0
  2 18  1  0  0  0  0
  3  6  1  0  0  0  0
  3 19  1  0  0  0  0
  3 20  1  0  0  0  0
  4 21  1  0  0  0  0
  4 22  1  0  0  0  0
  4 23  1  0  0  0  0
  5  7  1  0  0  0  0
  5  8  1  0  0  0  0
  5 24  1  1  0  0  0
  6  8  1  0  0  0  0
  6 25  1  0  0  0  0
  6 26  1  0  0  0  0
  7  9  2  0  0  0  0
  7 10  1  0  0  0  0
  8 11  1  0  0  0  0
  8 27  1  6  0  0  0
  9 12  1  0  0  0  0
  9 11  1  0  0  0  0
 10 13  2  0  0  0  0
 10 28  1  0  0  0  0
 11 29  1  0  0  0  0
 12 14  2  0  0  0  0
 12 30  1  0  0  0  0
 13 15  1  0  0  0  0
 13 14  1  0  0  0  0
 14 31  1  0  0  0  0
 15 32  1  0  0  0  0
 15 33  1  0  0  0  0
 15 34  1  0  0  0  0
M  CHG  1   1   1
M  END
>  <Column 1>
Cc1ccc2c(c1)[C@@H]1C[N@H+](C)CC[C@H]1N2 ZINC000000001161

>  <Column 2>
Decoy76

>  <MMFF94 Energy>
39.51

$$$$
Decoy77
 OpenBabel07082414533D

 31 32  0  0  1  0  0  0  0  0999 V2000
    2.5876    2.2304   -0.8918 O   0  0  0  0  0  0  0  0  0  0  0  0
    2.0280    1.3230   -0.2725 C   0  0  0  0  0  0  0  0  0  0  0  0
    0.6787    0.8378   -0.6890 C   0  0  0  0  0  0  0  0  0  0  0  0
    2.6285    0.6701    0.9310 C   0  0  1  0  0  0  0  0  0  0  0  0
   -0.1880    0.1804    0.2777 C   0  0  0  0  0  0  0  0  0  0  0  0
    0.3142    1.0202   -1.9678 C   0  0  0  0  0  0  0  0  0  0  0  0
    1.6107    0.2961    1.9681 C   0  0  0  0  0  0  0  0  0  0  0  0
    3.3494   -0.5796    0.4907 C   0  0  0  0  0  0  0  0  0  0  0  0
    0.2142   -0.0775    1.5401 C   0  0  0  0  0  0  0  0  0  0  0  0
   -1.5675   -0.1432   -0.2754 C   0  0  2  0  0  0  0  0  0  0  0  0
   -0.8440    0.5608   -2.5503 O   0  5  0  0  0  0  0  0  0  0  0  0
    1.8765    0.3058    3.1742 O   0  0  0  0  0  0  0  0  0  0  0  0
    4.6027   -0.5728    0.6476 O   0  0  0  0  0  0  0  0  0  0  0  0
    2.6246   -1.4987    0.0088 O   0  5  0  0  0  0  0  0  0  0  0  0
   -0.6105   -0.7044    2.6258 C   0  0  0  0  0  0  0  0  0  0  0  0
   -1.5047   -0.4662   -1.7874 C   0  0  1  0  0  0  0  0  0  0  0  0
   -2.5242    1.0296   -0.0129 C   0  0  0  0  0  0  0  0  0  0  0  0
   -0.8682   -1.8261   -2.0915 C   0  0  0  0  0  0  0  0  0  0  0  0
    3.2937    1.3783    1.3792 H   0  0  0  0  0  0  0  0  0  0  0  0
    0.9618    1.5536   -2.5686 H   0  0  0  0  0  0  0  0  0  0  0  0
   -1.9357   -1.0135    0.2265 H   0  0  0  0  0  0  0  0  0  0  0  0
   -1.5824   -0.9392    2.2449 H   0  0  0  0  0  0  0  0  0  0  0  0
   -0.7035   -0.0202    3.4432 H   0  0  0  0  0  0  0  0  0  0  0  0
   -0.1336   -1.6008    2.9634 H   0  0  0  0  0  0  0  0  0  0  0  0
   -2.5292   -0.5084   -2.0931 H   0  0  0  0  0  0  0  0  0  0  0  0
   -2.1620    1.9039   -0.5121 H   0  0  0  0  0  0  0  0  0  0  0  0
   -2.5790    1.2166    1.0392 H   0  0  0  0  0  0  0  0  0  0  0  0
   -3.4980    0.7852   -0.3829 H   0  0  0  0  0  0  0  0  0  0  0  0
    0.1599   -1.8130   -1.7951 H   0  0  0  0  0  0  0  0  0  0  0  0
   -0.9344   -2.0242   -3.1409 H   0  0  0  0  0  0  0  0  0  0  0  0
   -1.3855   -2.5909   -1.5508 H   0  0  0  0  0  0  0  0  0  0  0  0
  1  2  2  0  0  0  0
  2  3  1  0  0  0  0
  2  4  1  0  0  0  0
  3  5  1  0  0  0  0
  3  6  2  0  0  0  0
  4  7  1  0  0  0  0
  4  8  1  0  0  0  0
  4 19  1  1  0  0  0
  5  9  2  0  0  0  0
  5 10  1  0  0  0  0
  6 11  1  0  0  0  0
  6 20  1  0  0  0  0
  7 12  2  0  0  0  0
  7  9  1  0  0  0  0
  8 13  2  0  0  0  0
  8 14  1  0  0  0  0
  9 15  1  0  0  0  0
 10 16  1  0  0  0  0
 10 17  1  0  0  0  0
 10 21  1  1  0  0  0
 11 16  1  0  0  0  0
 15 22  1  0  0  0  0
 15 23  1  0  0  0  0
 15 24  1  0  0  0  0
 16 18  1  0  0  0  0
 16 25  1  6  0  0  0
 17 26  1  0  0  0  0
 17 27  1  0  0  0  0
 17 28  1  0  0  0  0
 18 29  1  0  0  0  0
 18 30  1  0  0  0  0
 18 31  1  0  0  0  0
M  CHG  2  11  -1  14  -1
M  END
>  <Column 1>
CC1=C2C(=CO[C@@H](C)[C@@H]2C)C(=O)C(C(=O)[O-])C1=O ZINC000000001164

>  <Column 2>
Decoy77

>  <MMFF94 Energy>
3.5186

$$$$
Decoy78
 OpenBabel07082414533D

 22 23  0  0  1  0  0  0  0  0999 V2000
   -2.0440   -1.7773   -2.6667 O   0  0  0  0  0  0  0  0  0  0  0  0
   -1.7744   -1.4271   -1.5401 C   0  0  0  0  0  0  0  0  0  0  0  0
   -1.6603   -0.1770   -0.9896 N   0  0  0  0  0  0  0  0  0  0  0  0
   -1.5785   -2.1178   -0.1843 C   0  0  0  0  0  0  0  0  0  0  0  0
   -0.4140    0.5921   -1.1531 C   0  0  1  0  0  0  0  0  0  0  0  0
   -1.6744   -0.7012    0.3895 C   0  0  1  0  0  0  0  0  0  0  0  0
    0.0713    0.6877    0.2909 C   0  0  0  0  0  0  0  0  0  0  0  0
    0.7461   -0.0277   -1.9993 C   0  0  0  0  0  0  0  0  0  0  0  0
   -0.5809   -0.1789    1.1716 O   0  0  0  0  0  0  0  0  0  0  0  0
    1.0303    1.5229    0.7212 C   0  0  0  0  0  0  0  0  0  0  0  0
    1.0895   -1.2116   -1.7018 O   0  0  0  0  0  0  0  0  0  0  0  0
    1.2476    0.7547   -2.8617 O   0  5  0  0  0  0  0  0  0  0  0  0
    1.5412    1.6009    2.1175 C   0  0  0  0  0  0  0  0  0  0  0  0
    2.9342    1.3169    2.1114 O   0  0  0  0  0  0  0  0  0  0  0  0
   -0.6336   -2.6018   -0.0505 H   0  0  0  0  0  0  0  0  0  0  0  0
   -2.1880   -2.9298    0.1536 H   0  0  0  0  0  0  0  0  0  0  0  0
   -0.6381    1.4881   -1.6934 H   0  0  0  0  0  0  0  0  0  0  0  0
   -2.4474   -0.5079    1.1037 H   0  0  0  0  0  0  0  0  0  0  0  0
    1.4474    2.1631    0.0275 H   0  0  0  0  0  0  0  0  0  0  0  0
    1.0308    0.8854    2.7278 H   0  0  0  0  0  0  0  0  0  0  0  0
    1.3713    2.5805    2.5129 H   0  0  0  0  0  0  0  0  0  0  0  0
    3.0814    0.4280    1.7520 H   0  0  0  0  0  0  0  0  0  0  0  0
  1  2  2  0  0  0  0
  2  3  1  0  0  0  0
  2  4  1  0  0  0  0
  3  5  1  0  0  0  0
  3  6  1  0  0  0  0
  4  6  1  0  0  0  0
  4 15  1  0  0  0  0
  4 16  1  0  0  0  0
  5  7  1  0  0  0  0
  5  8  1  0  0  0  0
  5 17  1  6  0  0  0
  6  9  1  0  0  0  0
  6 18  1  1  0  0  0
  7 10  2  0  0  0  0
  7  9  1  0  0  0  0
  8 11  2  0  0  0  0
  8 12  1  0  0  0  0
 10 13  1  0  0  0  0
 10 19  1  0  0  0  0
 13 14  1  0  0  0  0
 13 20  1  0  0  0  0
 13 21  1  0  0  0  0
 14 22  1  0  0  0  0
M  CHG  1  12  -1
M  END
>  <Column 1>
O=C([O-])[C@@H]1/C(=C/CO)O[C@@H]2CC(=O)N12 ZINC000000001169

>  <Column 2>
Decoy78

>  <MMFF94 Energy>
43.762

$$$$
Decoy79
 OpenBabel07082414533D

 31 33  0  0  0  0  0  0  0  0999 V2000
   -0.7189    4.9498   -0.3594 Cl  0  0  0  0  0  0  0  0  0  0  0  0
   -0.1923    3.3087   -0.5435 C   0  0  0  0  0  0  0  0  0  0  0  0
   -1.1016    2.2326   -0.6862 C   0  0  0  0  0  0  0  0  0  0  0  0
    1.1859    3.0962   -0.5374 C   0  0  0  0  0  0  0  0  0  0  0  0
   -0.5847    0.9139   -0.8272 C   0  0  0  0  0  0  0  0  0  0  0  0
   -2.5060    2.4127   -0.6954 C   0  0  0  0  0  0  0  0  0  0  0  0
    1.6929    1.8099   -0.6634 C   0  0  0  0  0  0  0  0  0  0  0  0
    0.8267    0.7134   -0.8036 C   0  0  0  0  0  0  0  0  0  0  0  0
   -1.5066   -0.1496   -0.9860 C   0  0  0  0  0  0  0  0  0  0  0  0
   -3.3862    1.3428   -0.8441 C   0  0  0  0  0  0  0  0  0  0  0  0
    1.4486   -0.6700   -0.8773 C   0  0  0  0  0  0  0  0  0  0  0  0
   -2.8861    0.0610   -0.9930 C   0  0  0  0  0  0  0  0  0  0  0  0
    1.2491   -1.4943    0.3406 C   0  0  0  0  0  0  0  0  0  0  0  0
    1.0461   -0.9961    1.5450 N   0  3  0  0  0  0  0  0  0  0  0  0
    1.2656   -2.8132    0.3134 N   0  0  0  0  0  0  0  0  0  0  0  0
    0.8743   -2.0787    2.5228 C   0  0  0  0  0  0  0  0  0  0  0  0
    1.0379   -3.3473    1.6671 C   0  0  0  0  0  0  0  0  0  0  0  0
    1.8301    3.8965   -0.4391 H   0  0  0  0  0  0  0  0  0  0  0  0
   -2.8892    3.3650   -0.5888 H   0  0  0  0  0  0  0  0  0  0  0  0
    2.7137    1.6584   -0.6540 H   0  0  0  0  0  0  0  0  0  0  0  0
   -1.1469   -1.1101   -1.1001 H   0  0  0  0  0  0  0  0  0  0  0  0
   -4.4053    1.5053   -0.8432 H   0  0  0  0  0  0  0  0  0  0  0  0
    2.5006   -0.5566   -1.0367 H   0  0  0  0  0  0  0  0  0  0  0  0
    0.9599   -1.1836   -1.6787 H   0  0  0  0  0  0  0  0  0  0  0  0
   -3.5311   -0.7363   -1.1088 H   0  0  0  0  0  0  0  0  0  0  0  0
    1.0143   -0.0355    1.7582 H   0  0  0  0  0  0  0  0  0  0  0  0
    1.4090   -3.3598   -0.4928 H   0  0  0  0  0  0  0  0  0  0  0  0
   -0.0960   -2.0405    2.9723 H   0  0  0  0  0  0  0  0  0  0  0  0
    1.5677   -2.0263    3.3360 H   0  0  0  0  0  0  0  0  0  0  0  0
    1.8747   -3.9271    1.9966 H   0  0  0  0  0  0  0  0  0  0  0  0
    0.1941   -4.0029    1.7231 H   0  0  0  0  0  0  0  0  0  0  0  0
  1  2  1  0  0  0  0
  2  3  1  0  0  0  0
  2  4  2  0  0  0  0
  3  5  1  0  0  0  0
  3  6  2  0  0  0  0
  4  7  1  0  0  0  0
  4 18  1  0  0  0  0
  5  8  1  0  0  0  0
  5  9  2  0  0  0  0
  6 10  1  0  0  0  0
  6 19  1  0  0  0  0
  7  8  2  0  0  0  0
  7 20  1  0  0  0  0
  8 11  1  0  0  0  0
  9 12  1  0  0  0  0
  9 21  1  0  0  0  0
 10 12  2  0  0  0  0
 10 22  1  0  0  0  0
 11 13  1  0  0  0  0
 11 23  1  0  0  0  0
 11 24  1  0  0  0  0
 12 25  1  0  0  0  0
 13 14  2  0  0  0  0
 13 15  1  0  0  0  0
 14 16  1  0  0  0  0
 14 26  1  0  0  0  0
 15 17  1  0  0  0  0
 15 27  1  0  0  0  0
 16 17  1  0  0  0  0
 16 28  1  0  0  0  0
 16 29  1  0  0  0  0
 17 30  1  0  0  0  0
 17 31  1  0  0  0  0
M  CHG  1  14   1
M  END
>  <Column 1>
Clc1ccc(CC2=[NH+]CCN2)c2ccccc12 ZINC000000001193

>  <Column 2>
Decoy79

>  <MMFF94 Energy>
84.107

$$$$
Decoy80
 OpenBabel07082414533D

 34 36  0  0  0  0  0  0  0  0999 V2000
   -1.4231    1.8681    0.8893 O   0  0  0  0  0  0  0  0  0  0  0  0
   -0.6475    2.4762   -0.0450 C   0  0  0  0  0  0  0  0  0  0  0  0
   -0.8210    0.6944    1.2210 C   0  0  0  0  0  0  0  0  0  0  0  0
    0.4634    1.6924   -0.3310 C   0  0  0  0  0  0  0  0  0  0  0  0
   -0.9174    3.7044   -0.6416 C   0  0  0  0  0  0  0  0  0  0  0  0
    0.3411    0.5227    0.4852 C   0  0  0  0  0  0  0  0  0  0  0  0
   -1.5192   -0.1142    2.2554 C   0  0  0  0  0  0  0  0  0  0  0  0
    1.3857    2.1660   -1.2840 C   0  0  0  0  0  0  0  0  0  0  0  0
    0.0094    4.1554   -1.5857 C   0  0  0  0  0  0  0  0  0  0  0  0
    1.2637   -0.6480    0.5168 C   0  0  0  0  0  0  0  0  0  0  0  0
   -1.0526    0.2508    3.6549 C   0  0  0  0  0  0  0  0  0  0  0  0
    1.1423    3.4018   -1.9018 C   0  0  0  0  0  0  0  0  0  0  0  0
    0.7941   -1.7586   -0.3495 C   0  0  0  0  0  0  0  0  0  0  0  0
    0.2333   -1.5797   -1.5310 N   0  3  0  0  0  0  0  0  0  0  0  0
    0.9066   -3.0288   -0.0086 N   0  0  0  0  0  0  0  0  0  0  0  0
   -0.1276   -2.8734   -2.1257 C   0  0  0  0  0  0  0  0  0  0  0  0
    0.3477   -3.8856   -1.0683 C   0  0  0  0  0  0  0  0  0  0  0  0
   -1.7573    4.2530   -0.3997 H   0  0  0  0  0  0  0  0  0  0  0  0
   -1.3183   -1.1506    2.0810 H   0  0  0  0  0  0  0  0  0  0  0  0
   -2.5680    0.0866    2.1877 H   0  0  0  0  0  0  0  0  0  0  0  0
    2.2245    1.6146   -1.5233 H   0  0  0  0  0  0  0  0  0  0  0  0
   -0.1459    5.0602   -2.0571 H   0  0  0  0  0  0  0  0  0  0  0  0
    1.3346   -1.0032    1.5236 H   0  0  0  0  0  0  0  0  0  0  0  0
    2.2151   -0.3252    0.1486 H   0  0  0  0  0  0  0  0  0  0  0  0
   -0.0040    0.0569    3.7432 H   0  0  0  0  0  0  0  0  0  0  0  0
   -1.5857   -0.3365    4.3731 H   0  0  0  0  0  0  0  0  0  0  0  0
   -1.2396    1.2890    3.8338 H   0  0  0  0  0  0  0  0  0  0  0  0
    1.8112    3.7600   -2.6013 H   0  0  0  0  0  0  0  0  0  0  0  0
    0.0789   -0.7039   -1.9534 H   0  0  0  0  0  0  0  0  0  0  0  0
    1.3053   -3.3553    0.8302 H   0  0  0  0  0  0  0  0  0  0  0  0
    0.3786   -3.0233   -3.0564 H   0  0  0  0  0  0  0  0  0  0  0  0
   -1.1702   -2.9575   -2.3511 H   0  0  0  0  0  0  0  0  0  0  0  0
   -0.4708   -4.4676   -0.6992 H   0  0  0  0  0  0  0  0  0  0  0  0
    1.0534   -4.5925   -1.4518 H   0  0  0  0  0  0  0  0  0  0  0  0
  1  2  1  0  0  0  0
  1  3  1  0  0  0  0
  2  4  2  0  0  0  0
  2  5  1  0  0  0  0
  3  6  2  0  0  0  0
  3  7  1  0  0  0  0
  4  8  1  0  0  0  0
  4  6  1  0  0  0  0
  5  9  2  0  0  0  0
  5 18  1  0  0  0  0
  6 10  1  0  0  0  0
  7 11  1  0  0  0  0
  7 19  1  0  0  0  0
  7 20  1  0  0  0  0
  8 12  2  0  0  0  0
  8 21  1  0  0  0  0
  9 12  1  0  0  0  0
  9 22  1  0  0  0  0
 10 13  1  0  0  0  0
 10 23  1  0  0  0  0
 10 24  1  0  0  0  0
 11 25  1  0  0  0  0
 11 26  1  0  0  0  0
 11 27  1  0  0  0  0
 12 28  1  0  0  0  0
 13 14  2  0  0  0  0
 13 15  1  0  0  0  0
 14 16  1  0  0  0  0
 14 29  1  0  0  0  0
 15 17  1  0  0  0  0
 15 30  1  0  0  0  0
 16 17  1  0  0  0  0
 16 31  1  0  0  0  0
 16 32  1  0  0  0  0
 17 33  1  0  0  0  0
 17 34  1  0  0  0  0
M  CHG  1  14   1
M  END
>  <Column 1>
CCc1oc2ccccc2c1CC1=[NH+]CCN1 ZINC000000001218

>  <Column 2>
Decoy80

>  <MMFF94 Energy>
56.785

$$$$
Decoy81
 OpenBabel07082414533D

 29 30  0  0  0  0  0  0  0  0999 V2000
    1.0885    0.9977   -1.9053 S   0  0  0  0  0  0  0  0  0  0  0  0
    0.0070   -0.4339   -1.7907 C   0  0  0  0  0  0  0  0  0  0  0  0
    0.9775    0.9912   -3.6476 C   0  0  0  0  0  0  0  0  0  0  0  0
   -0.3864   -1.0125   -0.6992 N   0  0  0  0  0  0  0  0  0  0  0  0
   -0.3393   -0.8099   -3.0849 N   0  0  0  0  0  0  0  0  0  0  0  0
    0.1981   -0.0087   -4.0772 C   0  0  0  0  0  0  0  0  0  0  0  0
    0.0350   -0.5300    0.5489 C   0  0  0  0  0  0  0  0  0  0  0  0
   -1.2371   -1.9207   -3.3212 C   0  0  0  0  0  0  0  0  0  0  0  0
   -0.7485    0.3767    1.2833 C   0  0  0  0  0  0  0  0  0  0  0  0
    1.2297   -1.0076    1.0989 C   0  0  0  0  0  0  0  0  0  0  0  0
   -0.2927    0.8248    2.5348 C   0  0  0  0  0  0  0  0  0  0  0  0
   -2.0464    0.8950    0.7319 C   0  0  0  0  0  0  0  0  0  0  0  0
    1.6707   -0.5642    2.3471 C   0  0  0  0  0  0  0  0  0  0  0  0
    0.9086    0.3508    3.0785 C   0  0  0  0  0  0  0  0  0  0  0  0
    1.3965    0.8613    4.4019 C   0  0  0  0  0  0  0  0  0  0  0  0
    1.4506    1.6692   -4.2652 H   0  0  0  0  0  0  0  0  0  0  0  0
    0.0109   -0.1709   -5.0790 H   0  0  0  0  0  0  0  0  0  0  0  0
   -1.5025   -2.3698   -2.3870 H   0  0  0  0  0  0  0  0  0  0  0  0
   -0.7519   -2.6459   -3.9405 H   0  0  0  0  0  0  0  0  0  0  0  0
   -2.1205   -1.5674   -3.8108 H   0  0  0  0  0  0  0  0  0  0  0  0
    1.7920   -1.6964    0.5752 H   0  0  0  0  0  0  0  0  0  0  0  0
   -0.8516    1.5139    3.0618 H   0  0  0  0  0  0  0  0  0  0  0  0
   -2.2324    0.4480   -0.2223 H   0  0  0  0  0  0  0  0  0  0  0  0
   -1.9884    1.9578    0.6226 H   0  0  0  0  0  0  0  0  0  0  0  0
   -2.8427    0.6483    1.4026 H   0  0  0  0  0  0  0  0  0  0  0  0
    2.5627   -0.9134    2.7310 H   0  0  0  0  0  0  0  0  0  0  0  0
    0.6811    1.5470    4.8054 H   0  0  0  0  0  0  0  0  0  0  0  0
    2.3333    1.3608    4.2681 H   0  0  0  0  0  0  0  0  0  0  0  0
    1.5232    0.0402    5.0762 H   0  0  0  0  0  0  0  0  0  0  0  0
  1  2  1  0  0  0  0
  1  3  1  0  0  0  0
  2  4  2  0  0  0  0
  2  5  1  0  0  0  0
  3  6  2  0  0  0  0
  3 16  1  0  0  0  0
  4  7  1  0  0  0  0
  5  8  1  0  0  0  0
  5  6  1  0  0  0  0
  6 17  1  0  0  0  0
  7  9  2  0  0  0  0
  7 10  1  0  0  0  0
  8 18  1  0  0  0  0
  8 19  1  0  0  0  0
  8 20  1  0  0  0  0
  9 11  1  0  0  0  0
  9 12  1  0  0  0  0
 10 13  2  0  0  0  0
 10 21  1  0  0  0  0
 11 14  2  0  0  0  0
 11 22  1  0  0  0  0
 12 23  1  0  0  0  0
 12 24  1  0  0  0  0
 12 25  1  0  0  0  0
 13 14  1  0  0  0  0
 13 26  1  0  0  0  0
 14 15  1  0  0  0  0
 15 27  1  0  0  0  0
 15 28  1  0  0  0  0
 15 29  1  0  0  0  0
M  END
>  <Column 1>
Cc1ccc(/N=c2\sccn2C)c(C)c1 ZINC000000001237

>  <Column 2>
Decoy81

>  <MMFF94 Energy>
15.484

$$$$
Decoy82
 OpenBabel07082414533D

 14 14  0  0  0  0  0  0  0  0999 V2000
    0.1846    2.4943    2.4943 Br  0  0  0  0  0  0  0  0  0  0  0  0
   -0.0526    1.1082    1.1849 C   0  0  0  0  0  0  0  0  0  0  0  0
    0.9730    0.7861    0.2511 C   0  0  0  0  0  0  0  0  0  0  0  0
   -1.2965    0.4554    1.2277 C   0  0  0  0  0  0  0  0  0  0  0  0
    2.1074    1.3796    0.2100 O   0  5  0  0  0  0  0  0  0  0  0  0
    0.6199   -0.2665   -0.6426 C   0  0  0  0  0  0  0  0  0  0  0  0
   -1.5715   -0.5600    0.3274 C   0  0  0  0  0  0  0  0  0  0  0  0
   -0.6223   -0.9281   -0.6099 C   0  0  0  0  0  0  0  0  0  0  0  0
    1.5885   -0.7204   -1.6808 C   0  0  0  0  0  0  0  0  0  0  0  0
   -3.2430   -1.4422    0.3798 Br  0  0  0  0  0  0  0  0  0  0  0  0
    1.3289   -1.6250   -2.4745 O   0  0  0  0  0  0  0  0  0  0  0  0
   -2.0025    0.7319    1.9278 H   0  0  0  0  0  0  0  0  0  0  0  0
   -0.8242   -1.6846   -1.2822 H   0  0  0  0  0  0  0  0  0  0  0  0
    2.5102   -0.2596   -1.7362 H   0  0  0  0  0  0  0  0  0  0  0  0
  1  2  1  0  0  0  0
  2  3  2  0  0  0  0
  2  4  1  0  0  0  0
  3  5  1  0  0  0  0
  3  6  1  0  0  0  0
  4  7  2  0  0  0  0
  4 12  1  0  0  0  0
  6  8  2  0  0  0  0
  6  9  1  0  0  0  0
  7 10  1  0  0  0  0
  7  8  1  0  0  0  0
  8 13  1  0  0  0  0
  9 11  2  0  0  0  0
  9 14  1  0  0  0  0
M  CHG  1   5  -1
M  END
>  <Column 1>
O=Cc1cc(Br)cc(Br)c1[O-] ZINC000000001241

>  <Column 2>
Decoy82

>  <MMFF94 Energy>
32.308

$$$$
Decoy83
 OpenBabel07082414533D

 16 16  0  0  0  0  0  0  0  0999 V2000
    2.4845    2.4845   -1.1957 Br  0  0  0  0  0  0  0  0  0  0  0  0
    1.1717    1.4061   -0.2946 C   0  0  0  0  0  0  0  0  0  0  0  0
    0.6785    0.1989   -0.8715 C   0  0  0  0  0  0  0  0  0  0  0  0
    0.7560    1.9009    0.9523 C   0  0  0  0  0  0  0  0  0  0  0  0
    1.0839   -0.2463   -2.0063 O   0  5  0  0  0  0  0  0  0  0  0  0
   -0.3009   -0.4725   -0.0597 C   0  0  0  0  0  0  0  0  0  0  0  0
   -0.1822    1.2018    1.6902 C   0  0  0  0  0  0  0  0  0  0  0  0
   -0.9700   -1.7677   -0.4624 C   0  0  0  0  0  0  0  0  0  0  0  0
   -0.7112    0.0218    1.1965 C   0  0  0  0  0  0  0  0  0  0  0  0
   -0.7426    1.8604    3.3718 Br  0  0  0  0  0  0  0  0  0  0  0  0
   -1.5720   -2.4789    0.3388 O   0  0  0  0  0  0  0  0  0  0  0  0
   -0.8800   -2.1226   -1.7782 N   0  0  0  0  0  0  0  0  0  0  0  0
    1.1490    2.7828    1.3167 H   0  0  0  0  0  0  0  0  0  0  0  0
   -1.4093   -0.4991    1.7501 H   0  0  0  0  0  0  0  0  0  0  0  0
   -0.3953   -1.5455   -2.4117 H   0  0  0  0  0  0  0  0  0  0  0  0
   -1.2998   -2.9555   -2.0932 H   0  0  0  0  0  0  0  0  0  0  0  0
  1  2  1  0  0  0  0
  2  3  2  0  0  0  0
  2  4  1  0  0  0  0
  3  5  1  0  0  0  0
  3  6  1  0  0  0  0
  4  7  2  0  0  0  0
  4 13  1  0  0  0  0
  6  8  1  0  0  0  0
  6  9  2  0  0  0  0
  7 10  1  0  0  0  0
  7  9  1  0  0  0  0
  8 11  2  0  0  0  0
  8 12  1  0  0  0  0
  9 14  1  0  0  0  0
 12 15  1  0  0  0  0
 12 16  1  0  0  0  0
M  CHG  1   5  -1
M  END
>  <Column 1>
NC(=O)c1cc(Br)cc(Br)c1[O-] ZINC000000001276

>  <Column 2>
Decoy83

>  <MMFF94 Energy>
5.1451

$$$$
Decoy84
 OpenBabel07082414533D

 18 18  0  0  0  0  0  0  0  0999 V2000
    1.0168    1.9417   -2.6820 Cl  0  0  0  0  0  0  0  0  0  0  0  0
    0.6840    0.7525   -1.4261 C   0  0  0  0  0  0  0  0  0  0  0  0
    1.3761   -0.4931   -1.4635 C   0  0  0  0  0  0  0  0  0  0  0  0
   -0.2679    1.0919   -0.4233 C   0  0  0  0  0  0  0  0  0  0  0  0
    2.2377   -0.8407   -2.3429 O   0  5  0  0  0  0  0  0  0  0  0  0
    1.0432   -1.3768   -0.4187 C   0  0  0  0  0  0  0  0  0  0  0  0
   -0.5394    0.1485    0.5829 C   0  0  0  0  0  0  0  0  0  0  0  0
   -0.9481    2.4368   -0.4701 C   0  0  0  0  0  0  0  0  0  0  0  0
    0.1120   -1.0920    0.5948 C   0  0  0  0  0  0  0  0  0  0  0  0
   -1.6917    0.4932    1.8426 Cl  0  0  0  0  0  0  0  0  0  0  0  0
   -0.1443   -2.1324    1.6485 C   0  0  0  0  0  0  0  0  0  0  0  0
    1.5144   -2.2947   -0.3957 H   0  0  0  0  0  0  0  0  0  0  0  0
   -0.5914    2.9877   -1.3152 H   0  0  0  0  0  0  0  0  0  0  0  0
   -0.7298    2.9783    0.4266 H   0  0  0  0  0  0  0  0  0  0  0  0
   -2.0058    2.2988   -0.5548 H   0  0  0  0  0  0  0  0  0  0  0  0
    0.4622   -2.9925    1.4554 H   0  0  0  0  0  0  0  0  0  0  0  0
   -1.1768   -2.4125    1.6295 H   0  0  0  0  0  0  0  0  0  0  0  0
    0.0993   -1.7330    2.6108 H   0  0  0  0  0  0  0  0  0  0  0  0
  1  2  1  0  0  0  0
  2  3  2  0  0  0  0
  2  4  1  0  0  0  0
  3  5  1  0  0  0  0
  3  6  1  0  0  0  0
  4  7  2  0  0  0  0
  4  8  1  0  0  0  0
  6  9  2  0  0  0  0
  6 12  1  0  0  0  0
  7 10  1  0  0  0  0
  7  9  1  0  0  0  0
  8 13  1  0  0  0  0
  8 14  1  0  0  0  0
  8 15  1  0  0  0  0
  9 11  1  0  0  0  0
 11 16  1  0  0  0  0
 11 17  1  0  0  0  0
 11 18  1  0  0  0  0
M  CHG  1   5  -1
M  END
>  <Column 1>
Cc1cc([O-])c(Cl)c(C)c1Cl ZINC000000001280

>  <Column 2>
Decoy84

>  <MMFF94 Energy>
25.461

$$$$
Decoy85
 OpenBabel07082414533D

 36 36  0  0  0  0  0  0  0  0999 V2000
   -0.0918   -0.0000    1.6526 O   0  0  0  0  0  0  0  0  0  0  0  0
    0.1349    0.4841    0.5461 C   0  0  0  0  0  0  0  0  0  0  0  0
    0.3830   -0.3510   -0.5423 N   0  0  0  0  0  0  0  0  0  0  0  0
    0.1187    1.8405    0.2708 N   0  0  0  0  0  0  0  0  0  0  0  0
   -0.7425   -0.4982   -1.4687 C   0  0  0  0  0  0  0  0  0  0  0  0
    1.0371   -1.6197   -0.2143 C   0  0  0  0  0  0  0  0  0  0  0  0
   -0.2871    2.7464    1.3492 C   0  0  0  0  0  0  0  0  0  0  0  0
    0.7901    2.4328   -0.8948 C   0  0  0  0  0  0  0  0  0  0  0  0
   -1.7814   -1.5102   -0.9431 C   0  0  0  0  0  0  0  0  0  0  0  0
    0.0569   -2.6788    0.3242 C   0  0  0  0  0  0  0  0  0  0  0  0
    0.8523    3.1546    2.2684 C   0  0  0  0  0  0  0  0  0  0  0  0
    2.3090    2.3595   -0.8189 C   0  0  0  0  0  0  0  0  0  0  0  0
   -1.1100   -2.8498   -0.6507 N   0  3  0  0  0  0  0  0  0  0  0  0
   -2.0936   -3.8687   -0.1561 C   0  0  0  0  0  0  0  0  0  0  0  0
   -0.3727   -0.8390   -2.4132 H   0  0  0  0  0  0  0  0  0  0  0  0
   -1.2219    0.4533   -1.5670 H   0  0  0  0  0  0  0  0  0  0  0  0
    1.7839   -1.4363    0.5297 H   0  0  0  0  0  0  0  0  0  0  0  0
    1.4610   -2.0051   -1.1180 H   0  0  0  0  0  0  0  0  0  0  0  0
   -1.0359    2.2575    1.9367 H   0  0  0  0  0  0  0  0  0  0  0  0
   -0.6493    3.6402    0.8858 H   0  0  0  0  0  0  0  0  0  0  0  0
    0.5032    3.4612   -0.9653 H   0  0  0  0  0  0  0  0  0  0  0  0
    0.4889    1.8694   -1.7532 H   0  0  0  0  0  0  0  0  0  0  0  0
   -2.5434   -1.6502   -1.6811 H   0  0  0  0  0  0  0  0  0  0  0  0
   -2.2130   -1.1311   -0.0404 H   0  0  0  0  0  0  0  0  0  0  0  0
   -0.3184   -2.3641    1.2755 H   0  0  0  0  0  0  0  0  0  0  0  0
    0.5689   -3.6125    0.4290 H   0  0  0  0  0  0  0  0  0  0  0  0
    1.2463    2.2869    2.7550 H   0  0  0  0  0  0  0  0  0  0  0  0
    0.4887    3.8417    3.0036 H   0  0  0  0  0  0  0  0  0  0  0  0
    1.6241    3.6225    1.6937 H   0  0  0  0  0  0  0  0  0  0  0  0
    2.6508    2.9133    0.0304 H   0  0  0  0  0  0  0  0  0  0  0  0
    2.7311    2.7758   -1.7096 H   0  0  0  0  0  0  0  0  0  0  0  0
    2.6125    1.3378   -0.7242 H   0  0  0  0  0  0  0  0  0  0  0  0
   -0.7323   -3.2015   -1.5305 H   0  0  0  0  0  0  0  0  0  0  0  0
   -2.5155   -3.5372    0.7696 H   0  0  0  0  0  0  0  0  0  0  0  0
   -1.5942   -4.8031   -0.0061 H   0  0  0  0  0  0  0  0  0  0  0  0
   -2.8727   -3.9926   -0.8790 H   0  0  0  0  0  0  0  0  0  0  0  0
  1  2  2  0  0  0  0
  2  3  1  0  0  0  0
  2  4  1  0  0  0  0
  3  5  1  0  0  0  0
  3  6  1  0  0  0  0
  4  7  1  0  0  0  0
  4  8  1  0  0  0  0
  5  9  1  0  0  0  0
  5 15  1  0  0  0  0
  5 16  1  0  0  0  0
  6 10  1  0  0  0  0
  6 17  1  0  0  0  0
  6 18  1  0  0  0  0
  7 11  1  0  0  0  0
  7 19  1  0  0  0  0
  7 20  1  0  0  0  0
  8 12  1  0  0  0  0
  8 21  1  0  0  0  0
  8 22  1  0  0  0  0
  9 13  1  0  0  0  0
  9 23  1  0  0  0  0
  9 24  1  0  0  0  0
 10 13  1  0  0  0  0
 10 25  1  0  0  0  0
 10 26  1  0  0  0  0
 11 27  1  0  0  0  0
 11 28  1  0  0  0  0
 11 29  1  0  0  0  0
 12 30  1  0  0  0  0
 12 31  1  0  0  0  0
 12 32  1  0  0  0  0
 13 14  1  0  0  0  0
 13 33  1  0  0  0  0
 14 34  1  0  0  0  0
 14 35  1  0  0  0  0
 14 36  1  0  0  0  0
M  CHG  1  13   1
M  END
>  <Column 1>
CCN(CC)C(=O)N1CC[NH+](C)CC1 ZINC000000001288

>  <Column 2>
Decoy85

>  <MMFF94 Energy>
-2.8501

$$$$
Decoy86
 OpenBabel07082414533D

 22 21  0  0  0  0  0  0  0  0999 V2000
    2.5759    1.3865    0.5941 S   0  0  0  0  0  0  0  0  0  0  0  0
    0.9279    1.0612    0.7510 C   0  0  0  0  0  0  0  0  0  0  0  0
   -0.1872    2.4321    0.8717 S   0  0  0  0  0  0  0  0  0  0  0  0
    0.3487   -0.2232    0.8065 N   0  0  0  0  0  0  0  0  0  0  0  0
   -0.2107    2.9424   -0.8620 C   0  0  0  0  0  0  0  0  0  0  0  0
    1.1460   -1.4348    0.5332 C   0  0  0  0  0  0  0  0  0  0  0  0
   -1.0634   -0.4668    1.1620 C   0  0  0  0  0  0  0  0  0  0  0  0
    1.3057   -1.7145   -0.9553 C   0  0  0  0  0  0  0  0  0  0  0  0
   -1.9698   -0.6164   -0.0491 C   0  0  0  0  0  0  0  0  0  0  0  0
   -0.8567    3.7877   -0.9763 H   0  0  0  0  0  0  0  0  0  0  0  0
   -0.5689    2.1354   -1.4665 H   0  0  0  0  0  0  0  0  0  0  0  0
    0.7796    3.2062   -1.1696 H   0  0  0  0  0  0  0  0  0  0  0  0
    0.6607   -2.2729    0.9881 H   0  0  0  0  0  0  0  0  0  0  0  0
    2.1238   -1.2742    0.9369 H   0  0  0  0  0  0  0  0  0  0  0  0
   -1.4132    0.3569    1.7486 H   0  0  0  0  0  0  0  0  0  0  0  0
   -1.1001   -1.3898    1.7020 H   0  0  0  0  0  0  0  0  0  0  0  0
    0.3432   -1.8804   -1.3923 H   0  0  0  0  0  0  0  0  0  0  0  0
    1.9140   -2.5842   -1.0915 H   0  0  0  0  0  0  0  0  0  0  0  0
    1.7721   -0.8754   -1.4278 H   0  0  0  0  0  0  0  0  0  0  0  0
   -1.9593    0.2906   -0.6167 H   0  0  0  0  0  0  0  0  0  0  0  0
   -2.9683   -0.8222    0.2759 H   0  0  0  0  0  0  0  0  0  0  0  0
   -1.6199   -1.4229   -0.6590 H   0  0  0  0  0  0  0  0  0  0  0  0
  1  2  2  0  0  0  0
  2  3  1  0  0  0  0
  2  4  1  0  0  0  0
  3  5  1  0  0  0  0
  4  6  1  0  0  0  0
  4  7  1  0  0  0  0
  5 10  1  0  0  0  0
  5 11  1  0  0  0  0
  5 12  1  0  0  0  0
  6  8  1  0  0  0  0
  6 13  1  0  0  0  0
  6 14  1  0  0  0  0
  7  9  1  0  0  0  0
  7 15  1  0  0  0  0
  7 16  1  0  0  0  0
  8 17  1  0  0  0  0
  8 18  1  0  0  0  0
  8 19  1  0  0  0  0
  9 20  1  0  0  0  0
  9 21  1  0  0  0  0
  9 22  1  0  0  0  0
M  END
>  <Column 1>
CCN(CC)C(=S)SC ZINC000000001289

>  <Column 2>
Decoy86

>  <MMFF94 Energy>
-18.203

$$$$
Decoy87
 OpenBabel07082414533D

 59 61  0  0  0  0  0  0  0  0999 V2000
    2.5496   -1.1326    0.6606 O   0  0  0  0  0  0  0  0  0  0  0  0
    1.8285   -0.3718    0.0327 C   0  0  0  0  0  0  0  0  0  0  0  0
    1.1517    0.6647    0.6203 O   0  0  0  0  0  0  0  0  0  0  0  0
    1.4910   -0.4816   -1.4692 C   0  0  0  0  0  0  0  0  0  0  0  0
    1.4120    0.8005    2.0294 C   0  0  0  0  0  0  0  0  0  0  0  0
   -0.0369   -0.8814   -1.5627 C   0  0  0  0  0  0  0  0  0  0  0  0
    1.7479    0.8969   -2.1391 C   0  0  0  0  0  0  0  0  0  0  0  0
    2.4166   -1.5371   -2.1325 C   0  0  0  0  0  0  0  0  0  0  0  0
    0.4074    1.8027    2.6003 C   0  0  0  0  0  0  0  0  0  0  0  0
   -0.3539   -2.2179   -0.8491 C   0  0  0  0  0  0  0  0  0  0  0  0
   -0.6037   -0.9276   -2.9994 C   0  0  0  0  0  0  0  0  0  0  0  0
    3.2220    1.3032   -2.1312 C   0  0  0  0  0  0  0  0  0  0  0  0
    3.8915   -1.1221   -2.1964 C   0  0  0  0  0  0  0  0  0  0  0  0
   -1.0082    1.4714    2.1298 N   0  3  0  0  0  0  0  0  0  0  0  0
   -1.8481   -2.5361   -0.8659 C   0  0  0  0  0  0  0  0  0  0  0  0
   -2.0967   -1.2607   -3.0173 C   0  0  0  0  0  0  0  0  0  0  0  0
    4.0809    0.2528   -2.8222 C   0  0  0  0  0  0  0  0  0  0  0  0
   -1.6066    0.2081    2.7028 C   0  0  0  0  0  0  0  0  0  0  0  0
   -1.9618    2.6379    2.2294 C   0  0  0  0  0  0  0  0  0  0  0  0
   -2.3978   -2.5617   -2.2856 C   0  0  0  0  0  0  0  0  0  0  0  0
   -2.0219    0.4165    4.1522 C   0  0  0  0  0  0  0  0  0  0  0  0
   -2.3667    2.8721    3.6777 C   0  0  0  0  0  0  0  0  0  0  0  0
   -2.9549    1.6135    4.3077 C   0  0  0  0  0  0  0  0  0  0  0  0
    2.4088    1.1584    2.1818 H   0  0  0  0  0  0  0  0  0  0  0  0
    1.3127   -0.1457    2.5190 H   0  0  0  0  0  0  0  0  0  0  0  0
   -0.5293   -0.0811   -1.0509 H   0  0  0  0  0  0  0  0  0  0  0  0
    1.1870    1.6408   -1.6130 H   0  0  0  0  0  0  0  0  0  0  0  0
    1.4453    0.8154   -3.1622 H   0  0  0  0  0  0  0  0  0  0  0  0
    2.0715   -1.7071   -3.1309 H   0  0  0  0  0  0  0  0  0  0  0  0
    2.3687   -2.4162   -1.5244 H   0  0  0  0  0  0  0  0  0  0  0  0
    0.6664    2.7871    2.2705 H   0  0  0  0  0  0  0  0  0  0  0  0
    0.4372    1.7509    3.6686 H   0  0  0  0  0  0  0  0  0  0  0  0
   -0.0261   -2.1529    0.1674 H   0  0  0  0  0  0  0  0  0  0  0  0
    0.1562   -3.0002   -1.3713 H   0  0  0  0  0  0  0  0  0  0  0  0
   -0.0765   -1.6751   -3.5546 H   0  0  0  0  0  0  0  0  0  0  0  0
   -0.4765    0.0411   -3.4357 H   0  0  0  0  0  0  0  0  0  0  0  0
    3.5496    1.4121   -1.1184 H   0  0  0  0  0  0  0  0  0  0  0  0
    3.3236    2.2282   -2.6594 H   0  0  0  0  0  0  0  0  0  0  0  0
    4.4261   -1.8420   -2.7803 H   0  0  0  0  0  0  0  0  0  0  0  0
    4.2617   -1.0779   -1.1935 H   0  0  0  0  0  0  0  0  0  0  0  0
   -0.8750    1.2699    1.1388 H   0  0  0  0  0  0  0  0  0  0  0  0
   -2.3690   -1.7885   -0.3049 H   0  0  0  0  0  0  0  0  0  0  0  0
   -1.9897   -3.5047   -0.4338 H   0  0  0  0  0  0  0  0  0  0  0  0
   -2.4182   -1.3532   -4.0337 H   0  0  0  0  0  0  0  0  0  0  0  0
   -2.6183   -0.4713   -2.5177 H   0  0  0  0  0  0  0  0  0  0  0  0
    5.1097    0.5345   -2.7379 H   0  0  0  0  0  0  0  0  0  0  0  0
    3.7839    0.1984   -3.8487 H   0  0  0  0  0  0  0  0  0  0  0  0
   -0.8810   -0.5769    2.6551 H   0  0  0  0  0  0  0  0  0  0  0  0
   -2.4733   -0.0510    2.1313 H   0  0  0  0  0  0  0  0  0  0  0  0
   -2.8358    2.4290    1.6486 H   0  0  0  0  0  0  0  0  0  0  0  0
   -1.4749    3.5160    1.8595 H   0  0  0  0  0  0  0  0  0  0  0  0
   -3.4577   -2.7028   -2.2468 H   0  0  0  0  0  0  0  0  0  0  0  0
   -1.9290   -3.3643   -2.8156 H   0  0  0  0  0  0  0  0  0  0  0  0
   -1.1454    0.5815    4.7433 H   0  0  0  0  0  0  0  0  0  0  0  0
   -2.5459   -0.4580    4.4771 H   0  0  0  0  0  0  0  0  0  0  0  0
   -3.0986    3.6519    3.7117 H   0  0  0  0  0  0  0  0  0  0  0  0
   -1.4915    3.1446    4.2297 H   0  0  0  0  0  0  0  0  0  0  0  0
   -3.1197    1.7917    5.3498 H   0  0  0  0  0  0  0  0  0  0  0  0
   -3.8735    1.3879    3.8076 H   0  0  0  0  0  0  0  0  0  0  0  0
  1  2  2  0  0  0  0
  2  3  1  0  0  0  0
  2  4  1  0  0  0  0
  3  5  1  0  0  0  0
  4  6  1  0  0  0  0
  4  7  1  0  0  0  0
  4  8  1  0  0  0  0
  5  9  1  0  0  0  0
  5 24  1  0  0  0  0
  5 25  1  0  0  0  0
  6 10  1  0  0  0  0
  6 11  1  0  0  0  0
  6 26  1  0  0  0  0
  7 12  1  0  0  0  0
  7 27  1  0  0  0  0
  7 28  1  0  0  0  0
  8 13  1  0  0  0  0
  8 29  1  0  0  0  0
  8 30  1  0  0  0  0
  9 14  1  0  0  0  0
  9 31  1  0  0  0  0
  9 32  1  0  0  0  0
 10 15  1  0  0  0  0
 10 33  1  0  0  0  0
 10 34  1  0  0  0  0
 11 16  1  0  0  0  0
 11 35  1  0  0  0  0
 11 36  1  0  0  0  0
 12 17  1  0  0  0  0
 12 37  1  0  0  0  0
 12 38  1  0  0  0  0
 13 17  1  0  0  0  0
 13 39  1  0  0  0  0
 13 40  1  0  0  0  0
 14 18  1  0  0  0  0
 14 19  1  0  0  0  0
 14 41  1  0  0  0  0
 15 20  1  0  0  0  0
 15 42  1  0  0  0  0
 15 43  1  0  0  0  0
 16 20  1  0  0  0  0
 16 44  1  0  0  0  0
 16 45  1  0  0  0  0
 17 46  1  0  0  0  0
 17 47  1  0  0  0  0
 18 21  1  0  0  0  0
 18 48  1  0  0  0  0
 18 49  1  0  0  0  0
 19 22  1  0  0  0  0
 19 50  1  0  0  0  0
 19 51  1  0  0  0  0
 20 52  1  0  0  0  0
 20 53  1  0  0  0  0
 21 23  1  0  0  0  0
 21 54  1  0  0  0  0
 21 55  1  0  0  0  0
 22 23  1  0  0  0  0
 22 56  1  0  0  0  0
 22 57  1  0  0  0  0
 23 58  1  0  0  0  0
 23 59  1  0  0  0  0
M  CHG  1  14   1
M  END
>  <Column 1>
O=C(OCC[NH+]1CCCCC1)C1(C2CCCCC2)CCCCC1 ZINC000000001297

>  <Column 2>
Decoy87

>  <MMFF94 Energy>
31.893

$$$$
Decoy88
 OpenBabel07082414533D

 29 29  0  0  0  0  0  0  0  0999 V2000
   -1.0489   -0.3496    3.2367 O   0  0  0  0  0  0  0  0  0  0  0  0
   -1.5777   -1.1848    2.4509 C   0  0  0  0  0  0  0  0  0  0  0  0
   -1.5232   -2.4465    2.4357 O   0  5  0  0  0  0  0  0  0  0  0  0
   -2.4814   -0.5776    1.3866 C   0  0  0  0  0  0  0  0  0  0  0  0
   -2.0520   -0.0696    0.2164 C   0  0  0  0  0  0  0  0  0  0  0  0
   -0.6302   -0.0999   -0.1879 C   0  0  0  0  0  0  0  0  0  0  0  0
   -2.9956    0.5576   -0.7683 C   0  0  0  0  0  0  0  0  0  0  0  0
    0.1495    1.0528   -0.3681 C   0  0  0  0  0  0  0  0  0  0  0  0
   -0.0382   -1.3440   -0.4520 C   0  0  0  0  0  0  0  0  0  0  0  0
   -0.3026    2.3221   -0.0960 O   0  0  0  0  0  0  0  0  0  0  0  0
    1.4559    0.9613   -0.8626 C   0  0  0  0  0  0  0  0  0  0  0  0
    1.2812   -1.4376   -0.9111 C   0  0  0  0  0  0  0  0  0  0  0  0
   -0.4671    2.4971    1.3171 C   0  0  0  0  0  0  0  0  0  0  0  0
    2.0317   -0.2826   -1.1257 C   0  0  0  0  0  0  0  0  0  0  0  0
    3.3214   -0.2376   -1.5844 O   0  0  0  0  0  0  0  0  0  0  0  0
    4.0014   -1.4830   -1.6718 C   0  0  0  0  0  0  0  0  0  0  0  0
   -3.4956   -0.5538    1.5759 H   0  0  0  0  0  0  0  0  0  0  0  0
   -3.9912    0.5267   -0.3776 H   0  0  0  0  0  0  0  0  0  0  0  0
   -2.9579    0.0183   -1.6917 H   0  0  0  0  0  0  0  0  0  0  0  0
   -2.7103    1.5749   -0.9375 H   0  0  0  0  0  0  0  0  0  0  0  0
   -0.5855   -2.2065   -0.3051 H   0  0  0  0  0  0  0  0  0  0  0  0
    1.9986    1.8221   -1.0343 H   0  0  0  0  0  0  0  0  0  0  0  0
    1.6991   -2.3639   -1.0911 H   0  0  0  0  0  0  0  0  0  0  0  0
   -0.8190    3.4880    1.5152 H   0  0  0  0  0  0  0  0  0  0  0  0
    0.4725    2.3477    1.8068 H   0  0  0  0  0  0  0  0  0  0  0  0
   -1.1776    1.7862    1.6842 H   0  0  0  0  0  0  0  0  0  0  0  0
    4.9932   -1.3227   -2.0399 H   0  0  0  0  0  0  0  0  0  0  0  0
    3.4736   -2.1315   -2.3395 H   0  0  0  0  0  0  0  0  0  0  0  0
    4.0491   -1.9321   -0.7018 H   0  0  0  0  0  0  0  0  0  0  0  0
  1  2  2  0  0  0  0
  2  3  1  0  0  0  0
  2  4  1  0  0  0  0
  4  5  2  0  0  0  0
  4 17  1  0  0  0  0
  5  6  1  0  0  0  0
  5  7  1  0  0  0  0
  6  8  2  0  0  0  0
  6  9  1  0  0  0  0
  7 18  1  0  0  0  0
  7 19  1  0  0  0  0
  7 20  1  0  0  0  0
  8 10  1  0  0  0  0
  8 11  1  0  0  0  0
  9 12  2  0  0  0  0
  9 21  1  0  0  0  0
 10 13  1  0  0  0  0
 11 14  2  0  0  0  0
 11 22  1  0  0  0  0
 12 14  1  0  0  0  0
 12 23  1  0  0  0  0
 13 24  1  0  0  0  0
 13 25  1  0  0  0  0
 13 26  1  0  0  0  0
 14 15  1  0  0  0  0
 15 16  1  0  0  0  0
 16 27  1  0  0  0  0
 16 28  1  0  0  0  0
 16 29  1  0  0  0  0
M  CHG  1   3  -1
M  END
>  <Column 1>
COc1ccc(/C(C)=C\C(=O)[O-])c(OC)c1 ZINC000000001303

>  <Column 2>
Decoy88

>  <MMFF94 Energy>
38.696

$$$$
Decoy89
 OpenBabel07082414533D

 40 40  0  0  0  0  0  0  0  0999 V2000
   -3.0673   -0.8359   -1.5793 S   0  0  0  0  0  0  0  0  0  0  0  0
   -2.3574    0.1265   -0.0488 P   0  0  0  0  0  0  0  0  0  0  0  0
   -1.2243   -0.5926    0.8513 O   0  0  0  0  0  0  0  0  0  0  0  0
   -1.7747    1.6076   -0.3470 O   0  0  0  0  0  0  0  0  0  0  0  0
   -3.4661    0.4754    1.0899 O   0  0  0  0  0  0  0  0  0  0  0  0
    0.0213   -0.8702    0.3560 C   0  0  0  0  0  0  0  0  0  0  0  0
   -1.3996    2.4424    0.7325 C   0  0  0  0  0  0  0  0  0  0  0  0
   -4.1706   -0.5935    1.6995 C   0  0  0  0  0  0  0  0  0  0  0  0
    0.3722   -0.3370   -0.8171 N   0  0  0  0  0  0  0  0  0  0  0  0
    0.8460   -1.6547    1.1239 C   0  0  0  0  0  0  0  0  0  0  0  0
   -0.4152    3.4746    0.2225 C   0  0  0  0  0  0  0  0  0  0  0  0
   -4.7783   -0.0923    2.9936 C   0  0  0  0  0  0  0  0  0  0  0  0
    1.6102   -0.6212   -1.2535 C   0  0  0  0  0  0  0  0  0  0  0  0
    2.1006   -1.8899    0.6062 C   0  0  0  0  0  0  0  0  0  0  0  0
    2.4963   -1.3783   -0.5768 N   0  0  0  0  0  0  0  0  0  0  0  0
    2.0290   -0.0323   -2.5814 C   0  0  0  0  0  0  0  0  0  0  0  0
    3.0847   -2.7355    1.3556 C   0  0  0  0  0  0  0  0  0  0  0  0
    2.4230   -1.1296   -3.5689 C   0  0  0  0  0  0  0  0  0  0  0  0
    3.1629    0.9740   -2.3920 C   0  0  0  0  0  0  0  0  0  0  0  0
   -0.9412    1.8551    1.5006 H   0  0  0  0  0  0  0  0  0  0  0  0
   -2.2628    2.9278    1.1376 H   0  0  0  0  0  0  0  0  0  0  0  0
   -3.4970   -1.3990    1.9052 H   0  0  0  0  0  0  0  0  0  0  0  0
   -4.9404   -0.9458    1.0451 H   0  0  0  0  0  0  0  0  0  0  0  0
    0.5450   -2.0434    2.0313 H   0  0  0  0  0  0  0  0  0  0  0  0
    0.4438    2.9798   -0.1803 H   0  0  0  0  0  0  0  0  0  0  0  0
   -0.1151    4.1103    1.0291 H   0  0  0  0  0  0  0  0  0  0  0  0
   -0.8790    4.0628   -0.5416 H   0  0  0  0  0  0  0  0  0  0  0  0
   -4.0012    0.2575    3.6406 H   0  0  0  0  0  0  0  0  0  0  0  0
   -5.3081   -0.8898    3.4712 H   0  0  0  0  0  0  0  0  0  0  0  0
   -5.4548    0.7095    2.7829 H   0  0  0  0  0  0  0  0  0  0  0  0
    1.1905    0.4885   -2.9943 H   0  0  0  0  0  0  0  0  0  0  0  0
    2.6420   -3.0728    2.2694 H   0  0  0  0  0  0  0  0  0  0  0  0
    3.9580   -2.1572    1.5745 H   0  0  0  0  0  0  0  0  0  0  0  0
    3.3569   -3.5803    0.7580 H   0  0  0  0  0  0  0  0  0  0  0  0
    3.2619   -1.6711   -3.1843 H   0  0  0  0  0  0  0  0  0  0  0  0
    2.6839   -0.6876   -4.5078 H   0  0  0  0  0  0  0  0  0  0  0  0
    1.5992   -1.7985   -3.7062 H   0  0  0  0  0  0  0  0  0  0  0  0
    4.0157    0.4769   -1.9791 H   0  0  0  0  0  0  0  0  0  0  0  0
    2.8447    1.7488   -1.7262 H   0  0  0  0  0  0  0  0  0  0  0  0
    3.4225    1.4011   -3.3381 H   0  0  0  0  0  0  0  0  0  0  0  0
  1  2  2  0  0  0  0
  2  3  1  0  0  0  0
  2  4  1  0  0  0  0
  2  5  1  0  0  0  0
  3  6  1  0  0  0  0
  4  7  1  0  0  0  0
  5  8  1  0  0  0  0
  6  9  2  0  0  0  0
  6 10  1  0  0  0  0
  7 11  1  0  0  0  0
  7 20  1  0  0  0  0
  7 21  1  0  0  0  0
  8 12  1  0  0  0  0
  8 22  1  0  0  0  0
  8 23  1  0  0  0  0
  9 13  1  0  0  0  0
 10 14  2  0  0  0  0
 10 24  1  0  0  0  0
 11 25  1  0  0  0  0
 11 26  1  0  0  0  0
 11 27  1  0  0  0  0
 12 28  1  0  0  0  0
 12 29  1  0  0  0  0
 12 30  1  0  0  0  0
 13 15  2  0  0  0  0
 13 16  1  0  0  0  0
 14 17  1  0  0  0  0
 14 15  1  0  0  0  0
 16 18  1  0  0  0  0
 16 19  1  0  0  0  0
 16 31  1  0  0  0  0
 17 32  1  0  0  0  0
 17 33  1  0  0  0  0
 17 34  1  0  0  0  0
 18 35  1  0  0  0  0
 18 36  1  0  0  0  0
 18 37  1  0  0  0  0
 19 38  1  0  0  0  0
 19 39  1  0  0  0  0
 19 40  1  0  0  0  0
M  END
>  <Column 1>
CCOP(=S)(OCC)Oc1cc(C)nc(C(C)C)n1 ZINC000000001309

>  <Column 2>
Decoy89

>  <MMFF94 Energy>
-100.78

$$$$
Decoy90
 OpenBabel07082414533D

 18 19  0  0  0  0  0  0  0  0999 V2000
   -3.0607    0.5397    1.7096 Br  0  0  0  0  0  0  0  0  0  0  0  0
   -1.2649    0.8636    1.0510 C   0  0  0  0  0  0  0  0  0  0  0  0
   -0.6479    2.1112    1.3758 C   0  0  0  0  0  0  0  0  0  0  0  0
   -0.6315   -0.1630    0.2652 C   0  0  0  0  0  0  0  0  0  0  0  0
   -1.1737    3.0492    2.0697 O   0  5  0  0  0  0  0  0  0  0  0  0
    0.6504    2.2619    0.8592 C   0  0  0  0  0  0  0  0  0  0  0  0
    0.6749    0.0798   -0.2105 C   0  0  0  0  0  0  0  0  0  0  0  0
   -1.2098   -1.4152   -0.0795 C   0  0  0  0  0  0  0  0  0  0  0  0
    1.3001    1.2891    0.0921 C   0  0  0  0  0  0  0  0  0  0  0  0
    1.3491   -0.8832   -0.9839 C   0  0  0  0  0  0  0  0  0  0  0  0
   -0.5327   -2.3667   -0.8486 C   0  0  0  0  0  0  0  0  0  0  0  0
    0.7501   -2.0996   -1.3018 C   0  0  0  0  0  0  0  0  0  0  0  0
    1.1535    3.1410    1.0572 H   0  0  0  0  0  0  0  0  0  0  0  0
   -2.1640   -1.6297    0.2499 H   0  0  0  0  0  0  0  0  0  0  0  0
    2.2553    1.4688   -0.2547 H   0  0  0  0  0  0  0  0  0  0  0  0
    2.3039   -0.6846   -1.3214 H   0  0  0  0  0  0  0  0  0  0  0  0
   -0.9863   -3.2648   -1.0781 H   0  0  0  0  0  0  0  0  0  0  0  0
    1.2568   -2.7964   -1.8700 H   0  0  0  0  0  0  0  0  0  0  0  0
  1  2  1  0  0  0  0
  2  3  2  0  0  0  0
  2  4  1  0  0  0  0
  3  5  1  0  0  0  0
  3  6  1  0  0  0  0
  4  7  1  0  0  0  0
  4  8  2  0  0  0  0
  6  9  2  0  0  0  0
  6 13  1  0  0  0  0
  7 10  2  0  0  0  0
  7  9  1  0  0  0  0
  8 11  1  0  0  0  0
  8 14  1  0  0  0  0
  9 15  1  0  0  0  0
 10 12  1  0  0  0  0
 10 16  1  0  0  0  0
 11 12  2  0  0  0  0
 11 17  1  0  0  0  0
 12 18  1  0  0  0  0
M  CHG  1   5  -1
M  END
>  <Column 1>
[O-]c1ccc2ccccc2c1Br ZINC000000001318

>  <Column 2>
Decoy90

>  <MMFF94 Energy>
44.95

$$$$
Decoy91
 OpenBabel07082414533D

 39 40  0  0  0  0  0  0  0  0999 V2000
   -1.2518    2.1466    2.4152 O   0  0  0  0  0  0  0  0  0  0  0  0
   -0.5450    1.1541    1.7819 C   0  0  0  0  0  0  0  0  0  0  0  0
   -0.3614    3.0609    3.0613 C   0  0  0  0  0  0  0  0  0  0  0  0
   -0.2008    1.3083    0.4241 C   0  0  0  0  0  0  0  0  0  0  0  0
   -0.2660   -0.0291    2.4811 C   0  0  0  0  0  0  0  0  0  0  0  0
    0.5426    0.2840   -0.2100 C   0  0  0  0  0  0  0  0  0  0  0  0
   -0.6000    2.5613   -0.3143 C   0  0  0  0  0  0  0  0  0  0  0  0
    0.4591   -1.0387    1.8376 C   0  0  0  0  0  0  0  0  0  0  0  0
   -0.6973   -0.2240    3.9088 C   0  0  0  0  0  0  0  0  0  0  0  0
    0.8717   -0.8858    0.5119 C   0  0  0  0  0  0  0  0  0  0  0  0
    0.9668    0.3892   -1.6637 C   0  0  0  0  0  0  0  0  0  0  0  0
    1.5420   -1.8633   -0.1886 O   0  0  0  0  0  0  0  0  0  0  0  0
    0.0822   -0.3747   -2.5711 C   0  0  0  0  0  0  0  0  0  0  0  0
    2.3595   -2.7315    0.6008 C   0  0  0  0  0  0  0  0  0  0  0  0
    0.0027   -1.6893   -2.5488 N   0  3  0  0  0  0  0  0  0  0  0  0
   -0.6967    0.1881   -3.4747 N   0  0  0  0  0  0  0  0  0  0  0  0
   -0.9711   -2.1572   -3.5382 C   0  0  0  0  0  0  0  0  0  0  0  0
   -1.4572   -0.8493   -4.1901 C   0  0  0  0  0  0  0  0  0  0  0  0
   -0.9282    3.8264    3.5488 H   0  0  0  0  0  0  0  0  0  0  0  0
    0.2846    3.5047    2.3328 H   0  0  0  0  0  0  0  0  0  0  0  0
    0.2255    2.5356    3.7855 H   0  0  0  0  0  0  0  0  0  0  0  0
   -1.1521    3.2013    0.3418 H   0  0  0  0  0  0  0  0  0  0  0  0
   -1.2090    2.3013   -1.1548 H   0  0  0  0  0  0  0  0  0  0  0  0
    0.2779    3.0702   -0.6538 H   0  0  0  0  0  0  0  0  0  0  0  0
    0.6913   -1.9051    2.3479 H   0  0  0  0  0  0  0  0  0  0  0  0
   -1.2364    0.6391    4.2395 H   0  0  0  0  0  0  0  0  0  0  0  0
    0.1654   -0.3638    4.5261 H   0  0  0  0  0  0  0  0  0  0  0  0
   -1.3277   -1.0859    3.9764 H   0  0  0  0  0  0  0  0  0  0  0  0
    1.9634    0.0112   -1.7581 H   0  0  0  0  0  0  0  0  0  0  0  0
    0.9074    1.4199   -1.9449 H   0  0  0  0  0  0  0  0  0  0  0  0
    2.8335   -3.4503   -0.0345 H   0  0  0  0  0  0  0  0  0  0  0  0
    1.7507   -3.2380    1.3204 H   0  0  0  0  0  0  0  0  0  0  0  0
    3.1059   -2.1558    1.1071 H   0  0  0  0  0  0  0  0  0  0  0  0
    0.5235   -2.2741   -1.9522 H   0  0  0  0  0  0  0  0  0  0  0  0
   -0.7598    1.1557   -3.6449 H   0  0  0  0  0  0  0  0  0  0  0  0
   -1.7797   -2.6757   -3.0668 H   0  0  0  0  0  0  0  0  0  0  0  0
   -0.5587   -2.8510   -4.2407 H   0  0  0  0  0  0  0  0  0  0  0  0
   -1.2331   -0.8360   -5.2363 H   0  0  0  0  0  0  0  0  0  0  0  0
   -2.5165   -0.7151   -4.1205 H   0  0  0  0  0  0  0  0  0  0  0  0
  1  2  1  0  0  0  0
  1  3  1  0  0  0  0
  2  4  2  0  0  0  0
  2  5  1  0  0  0  0
  3 19  1  0  0  0  0
  3 20  1  0  0  0  0
  3 21  1  0  0  0  0
  4  6  1  0  0  0  0
  4  7  1  0  0  0  0
  5  8  2  0  0  0  0
  5  9  1  0  0  0  0
  6 10  2  0  0  0  0
  6 11  1  0  0  0  0
  7 22  1  0  0  0  0
  7 23  1  0  0  0  0
  7 24  1  0  0  0  0
  8 10  1  0  0  0  0
  8 25  1  0  0  0  0
  9 26  1  0  0  0  0
  9 27  1  0  0  0  0
  9 28  1  0  0  0  0
 10 12  1  0  0  0  0
 11 13  1  0  0  0  0
 11 29  1  0  0  0  0
 11 30  1  0  0  0  0
 12 14  1  0  0  0  0
 13 15  2  0  0  0  0
 13 16  1  0  0  0  0
 14 31  1  0  0  0  0
 14 32  1  0  0  0  0
 14 33  1  0  0  0  0
 15 17  1  0  0  0  0
 15 34  1  0  0  0  0
 16 18  1  0  0  0  0
 16 35  1  0  0  0  0
 17 18  1  0  0  0  0
 17 36  1  0  0  0  0
 17 37  1  0  0  0  0
 18 38  1  0  0  0  0
 18 39  1  0  0  0  0
M  CHG  1  15   1
M  END
>  <Column 1>
COc1cc(C)c(OC)c(C)c1CC1=[NH+]CCN1 ZINC000000001327

>  <Column 2>
Decoy91

>  <MMFF94 Energy>
67.874

$$$$
Decoy92
 OpenBabel07082414533D

 31 33  0  0  0  0  0  0  0  0999 V2000
   -3.0836    0.8804   -1.7613 O   0  0  0  0  0  0  0  0  0  0  0  0
   -2.1691    1.0756   -0.9671 C   0  0  0  0  0  0  0  0  0  0  0  0
   -1.9214    2.3669   -0.3125 C   0  0  0  0  0  0  0  0  0  0  0  0
   -1.2155   -0.0274   -0.6569 C   0  0  0  0  0  0  0  0  0  0  0  0
   -2.8285    3.5643   -0.4766 C   0  0  0  0  0  0  0  0  0  0  0  0
   -0.8449    2.4883    0.4715 C   0  0  0  0  0  0  0  0  0  0  0  0
   -0.0995    0.2129    0.1992 C   0  0  0  0  0  0  0  0  0  0  0  0
   -1.4464   -1.2831   -1.2455 C   0  0  0  0  0  0  0  0  0  0  0  0
   -3.9692    3.4697    0.0602 O   0  0  0  0  0  0  0  0  0  0  0  0
   -2.2942    4.5701   -1.0348 O   0  5  0  0  0  0  0  0  0  0  0  0
    0.0788    1.4963    0.7666 N   0  0  0  0  0  0  0  0  0  0  0  0
    0.7805   -0.8613    0.4380 C   0  0  0  0  0  0  0  0  0  0  0  0
   -0.5633   -2.2972   -0.9630 C   0  0  0  0  0  0  0  0  0  0  0  0
    1.2474    1.7992    1.6020 C   0  0  0  0  0  0  0  0  0  0  0  0
    0.5303   -2.0978   -0.1407 C   0  0  0  0  0  0  0  0  0  0  0  0
   -0.6501   -3.5701   -1.4643 O   0  0  0  0  0  0  0  0  0  0  0  0
    2.4539    2.1623    0.7475 C   0  0  0  0  0  0  0  0  0  0  0  0
    1.3305   -3.3410   -0.0860 C   0  0  0  0  0  0  0  0  0  0  0  0
    0.3038   -4.3117   -0.6703 C   0  0  0  0  0  0  0  0  0  0  0  0
   -0.6852    3.4133    0.9003 H   0  0  0  0  0  0  0  0  0  0  0  0
   -2.2534   -1.4382   -1.8698 H   0  0  0  0  0  0  0  0  0  0  0  0
    1.6077   -0.7292    1.0407 H   0  0  0  0  0  0  0  0  0  0  0  0
    1.4849    0.9407    2.1948 H   0  0  0  0  0  0  0  0  0  0  0  0
    1.0104    2.6346    2.2271 H   0  0  0  0  0  0  0  0  0  0  0  0
    2.7047    1.3363    0.1152 H   0  0  0  0  0  0  0  0  0  0  0  0
    3.2846    2.3909    1.3820 H   0  0  0  0  0  0  0  0  0  0  0  0
    2.2204    3.0149    0.1446 H   0  0  0  0  0  0  0  0  0  0  0  0
    1.6022   -3.5995    0.9161 H   0  0  0  0  0  0  0  0  0  0  0  0
    2.2715   -3.3055   -0.5940 H   0  0  0  0  0  0  0  0  0  0  0  0
    0.8011   -5.0308   -1.2871 H   0  0  0  0  0  0  0  0  0  0  0  0
   -0.2045   -4.8192    0.1228 H   0  0  0  0  0  0  0  0  0  0  0  0
  1  2  2  0  0  0  0
  2  3  1  0  0  0  0
  2  4  1  0  0  0  0
  3  5  1  0  0  0  0
  3  6  2  0  0  0  0
  4  7  2  0  0  0  0
  4  8  1  0  0  0  0
  5  9  2  0  0  0  0
  5 10  1  0  0  0  0
  6 11  1  0  0  0  0
  6 20  1  0  0  0  0
  7 12  1  0  0  0  0
  7 11  1  0  0  0  0
  8 13  2  0  0  0  0
  8 21  1  0  0  0  0
 11 14  1  0  0  0  0
 12 15  2  0  0  0  0
 12 22  1  0  0  0  0
 13 16  1  0  0  0  0
 13 15  1  0  0  0  0
 14 17  1  0  0  0  0
 14 23  1  0  0  0  0
 14 24  1  0  0  0  0
 15 18  1  0  0  0  0
 16 19  1  0  0  0  0
 17 25  1  0  0  0  0
 17 26  1  0  0  0  0
 17 27  1  0  0  0  0
 18 19  1  0  0  0  0
 18 28  1  0  0  0  0
 18 29  1  0  0  0  0
 19 30  1  0  0  0  0
 19 31  1  0  0  0  0
M  CHG  1  10  -1
M  END
>  <Column 1>
CCn1cc(C(=O)[O-])c(=O)c2cc3c(cc21)CCO3 ZINC000000001337

>  <Column 2>
Decoy92

>  <MMFF94 Energy>
47.903

$$$$
Decoy93
 OpenBabel07082414533D

 26 27  0  0  0  0  0  0  0  0999 V2000
    1.8327    0.3664    2.3830 Cl  0  0  0  0  0  0  0  0  0  0  0  0
    2.0378    0.8485    0.7294 C   0  0  0  0  0  0  0  0  0  0  0  0
    1.1777    0.4075   -0.2985 C   0  0  0  0  0  0  0  0  0  0  0  0
    3.1473    1.6604    0.4509 C   0  0  0  0  0  0  0  0  0  0  0  0
    0.0264   -0.3765   -0.0362 N   0  0  0  0  0  0  0  0  0  0  0  0
    1.4766    0.8243   -1.6119 C   0  0  0  0  0  0  0  0  0  0  0  0
    3.4227    2.0534   -0.8553 C   0  0  0  0  0  0  0  0  0  0  0  0
   -1.0913   -0.0435    0.6698 C   0  0  0  0  0  0  0  0  0  0  0  0
    0.4718    0.3989   -2.9541 Cl  0  0  0  0  0  0  0  0  0  0  0  0
    2.5874    1.6341   -1.8858 C   0  0  0  0  0  0  0  0  0  0  0  0
   -2.1598   -0.9787    0.9036 C   0  0  0  0  0  0  0  0  0  0  0  0
   -1.3599    1.1990    1.2019 C   0  0  0  0  0  0  0  0  0  0  0  0
   -3.1961   -0.3731    1.5944 C   0  0  0  0  0  0  0  0  0  0  0  0
   -2.1618   -2.4329    0.5097 C   0  0  0  0  0  0  0  0  0  0  0  0
   -2.8842    1.2631    1.9707 S   0  0  0  0  0  0  0  0  0  0  0  0
   -2.0405   -2.6408   -1.0000 C   0  0  0  0  0  0  0  0  0  0  0  0
   -3.0930   -3.0212   -1.5872 O   0  0  0  0  0  0  0  0  0  0  0  0
   -0.8809   -2.4421   -1.4786 O   0  5  0  0  0  0  0  0  0  0  0  0
    3.7632    1.9682    1.2196 H   0  0  0  0  0  0  0  0  0  0  0  0
    0.0350   -1.2850   -0.4154 H   0  0  0  0  0  0  0  0  0  0  0  0
    4.2395    2.6507   -1.0578 H   0  0  0  0  0  0  0  0  0  0  0  0
    2.7867    1.9208   -2.8569 H   0  0  0  0  0  0  0  0  0  0  0  0
   -0.7129    2.0008    1.1426 H   0  0  0  0  0  0  0  0  0  0  0  0
   -4.0675   -0.8607    1.8550 H   0  0  0  0  0  0  0  0  0  0  0  0
   -3.0773   -2.8755    0.8428 H   0  0  0  0  0  0  0  0  0  0  0  0
   -1.3090   -2.8903    0.9662 H   0  0  0  0  0  0  0  0  0  0  0  0
  1  2  1  0  0  0  0
  2  3  2  0  0  0  0
  2  4  1  0  0  0  0
  3  5  1  0  0  0  0
  3  6  1  0  0  0  0
  4  7  2  0  0  0  0
  4 19  1  0  0  0  0
  5  8  1  0  0  0  0
  5 20  1  0  0  0  0
  6  9  1  0  0  0  0
  6 10  2  0  0  0  0
  7 10  1  0  0  0  0
  7 21  1  0  0  0  0
  8 11  1  0  0  0  0
  8 12  2  0  0  0  0
 10 22  1  0  0  0  0
 11 13  2  0  0  0  0
 11 14  1  0  0  0  0
 12 15  1  0  0  0  0
 12 23  1  0  0  0  0
 13 15  1  0  0  0  0
 13 24  1  0  0  0  0
 14 16  1  0  0  0  0
 14 25  1  0  0  0  0
 14 26  1  0  0  0  0
 16 17  2  0  0  0  0
 16 18  1  0  0  0  0
M  CHG  1  18  -1
M  END
>  <Column 1>
O=C([O-])Cc1cscc1Nc1c(Cl)cccc1Cl ZINC000000001346

>  <Column 2>
Decoy93

>  <MMFF94 Energy>
62.886

$$$$
Decoy94
 OpenBabel07082414533D

 31 31  0  0  0  0  0  0  0  0999 V2000
   -1.4621   -0.6395   -0.3654 S   0  0  0  0  0  0  0  0  0  0  0  0
   -2.4637   -0.2707    0.6159 O   0  0  0  0  0  0  0  0  0  0  0  0
   -1.8245   -1.3883   -1.5514 O   0  0  0  0  0  0  0  0  0  0  0  0
   -0.2487   -1.5106    0.4602 N   0  0  0  0  0  0  0  0  0  0  0  0
   -0.5995    0.8181   -0.8868 C   0  0  0  0  0  0  0  0  0  0  0  0
   -0.4459   -2.9771    0.5620 C   0  0  0  0  0  0  0  0  0  0  0  0
    0.3197   -0.8757    1.6758 C   0  0  0  0  0  0  0  0  0  0  0  0
   -0.9444    2.0643   -0.3605 C   0  0  0  0  0  0  0  0  0  0  0  0
    0.4388    0.6933   -1.8127 C   0  0  0  0  0  0  0  0  0  0  0  0
   -1.7086   -3.3676    1.3124 C   0  0  0  0  0  0  0  0  0  0  0  0
    1.8355   -0.8476    1.5694 C   0  0  0  0  0  0  0  0  0  0  0  0
   -0.2196    3.1932   -0.7477 C   0  0  0  0  0  0  0  0  0  0  0  0
    1.1570    1.8282   -2.1929 C   0  0  0  0  0  0  0  0  0  0  0  0
    0.8454    3.0925   -1.6611 C   0  0  0  0  0  0  0  0  0  0  0  0
    1.6445    4.3204   -2.0594 C   0  0  0  0  0  0  0  0  0  0  0  0
    2.5958    4.1480   -2.8846 O   0  0  0  0  0  0  0  0  0  0  0  0
    1.3063    5.4260   -1.5307 O   0  5  0  0  0  0  0  0  0  0  0  0
    0.3953   -3.3975    1.0725 H   0  0  0  0  0  0  0  0  0  0  0  0
   -0.5436   -3.3519   -0.4355 H   0  0  0  0  0  0  0  0  0  0  0  0
    0.0329   -1.4383    2.5396 H   0  0  0  0  0  0  0  0  0  0  0  0
   -0.0509    0.1243    1.7630 H   0  0  0  0  0  0  0  0  0  0  0  0
   -1.7264    2.1502    0.3074 H   0  0  0  0  0  0  0  0  0  0  0  0
    0.6727   -0.2292   -2.2119 H   0  0  0  0  0  0  0  0  0  0  0  0
   -1.6503   -3.0097    2.3191 H   0  0  0  0  0  0  0  0  0  0  0  0
   -1.8052   -4.4332    1.3178 H   0  0  0  0  0  0  0  0  0  0  0  0
   -2.5592   -2.9348    0.8286 H   0  0  0  0  0  0  0  0  0  0  0  0
    2.2055   -1.8478    1.4822 H   0  0  0  0  0  0  0  0  0  0  0  0
    2.2461   -0.3905    2.4454 H   0  0  0  0  0  0  0  0  0  0  0  0
    2.1220   -0.2847    0.7057 H   0  0  0  0  0  0  0  0  0  0  0  0
   -0.4691    4.1156   -0.3578 H   0  0  0  0  0  0  0  0  0  0  0  0
    1.9274    1.7384   -2.8737 H   0  0  0  0  0  0  0  0  0  0  0  0
  1  2  2  0  0  0  0
  1  3  2  0  0  0  0
  1  4  1  0  0  0  0
  1  5  1  0  0  0  0
  4  6  1  0  0  0  0
  4  7  1  0  0  0  0
  5  8  2  0  0  0  0
  5  9  1  0  0  0  0
  6 10  1  0  0  0  0
  6 18  1  0  0  0  0
  6 19  1  0  0  0  0
  7 11  1  0  0  0  0
  7 20  1  0  0  0  0
  7 21  1  0  0  0  0
  8 12  1  0  0  0  0
  8 22  1  0  0  0  0
  9 13  2  0  0  0  0
  9 23  1  0  0  0  0
 10 24  1  0  0  0  0
 10 25  1  0  0  0  0
 10 26  1  0  0  0  0
 11 27  1  0  0  0  0
 11 28  1  0  0  0  0
 11 29  1  0  0  0  0
 12 14  2  0  0  0  0
 12 30  1  0  0  0  0
 13 14  1  0  0  0  0
 13 31  1  0  0  0  0
 14 15  1  0  0  0  0
 15 16  2  0  0  0  0
 15 17  1  0  0  0  0
M  CHG  1  17  -1
M  END
>  <Column 1>
CCN(CC)S(=O)(=O)c1ccc(C(=O)[O-])cc1 ZINC000000001380

>  <Column 2>
Decoy94

>  <MMFF94 Energy>
-2.6692

$$$$
Decoy95
 OpenBabel07082414533D

 30 30  0  0  0  0  0  0  0  0999 V2000
    4.0552    0.9002   -0.4500 Cl  0  0  0  0  0  0  0  0  0  0  0  0
    2.5923    0.0012   -0.1870 C   0  0  0  0  0  0  0  0  0  0  0  0
    1.6252    0.4405    0.7292 C   0  0  0  0  0  0  0  0  0  0  0  0
    2.3782   -1.1979   -0.8834 C   0  0  0  0  0  0  0  0  0  0  0  0
    1.8222    1.9350    1.5959 Cl  0  0  0  0  0  0  0  0  0  0  0  0
    0.4818   -0.3458    0.9418 C   0  0  0  0  0  0  0  0  0  0  0  0
    3.2187   -1.6402   -1.8746 O   0  0  0  0  0  0  0  0  0  0  0  0
    1.2784   -2.0129   -0.5952 C   0  0  0  0  0  0  0  0  0  0  0  0
   -0.6111    0.1101    1.8134 C   0  0  0  0  0  0  0  0  0  0  0  0
    0.3212   -1.5860    0.3159 C   0  0  0  0  0  0  0  0  0  0  0  0
    2.9228   -0.9854   -3.1422 C   0  0  0  0  0  0  0  0  0  0  0  0
   -0.6583   -0.3006    2.9688 O   0  0  0  0  0  0  0  0  0  0  0  0
   -1.6443    1.0474    1.2522 C   0  0  0  0  0  0  0  0  0  0  0  0
    1.4468   -1.1285   -3.5791 C   0  0  0  0  0  0  0  0  0  0  0  0
   -1.6892    1.3803   -0.0500 C   0  0  0  0  0  0  0  0  0  0  0  0
   -2.6236    1.6173    2.2474 C   0  0  0  0  0  0  0  0  0  0  0  0
    0.7182   -0.1156   -3.3514 O   0  0  0  0  0  0  0  0  0  0  0  0
    1.1336   -2.2346   -4.1061 O   0  5  0  0  0  0  0  0  0  0  0  0
   -3.7567    0.6507    2.5647 C   0  0  0  0  0  0  0  0  0  0  0  0
    1.1786   -2.9295   -1.0587 H   0  0  0  0  0  0  0  0  0  0  0  0
   -0.4981   -2.1764    0.5283 H   0  0  0  0  0  0  0  0  0  0  0  0
    3.5437   -1.4166   -3.8994 H   0  0  0  0  0  0  0  0  0  0  0  0
    3.1123    0.0592   -3.0091 H   0  0  0  0  0  0  0  0  0  0  0  0
   -1.0068    0.9755   -0.7099 H   0  0  0  0  0  0  0  0  0  0  0  0
   -2.4061    2.0405   -0.3894 H   0  0  0  0  0  0  0  0  0  0  0  0
   -3.0412    2.5156    1.8429 H   0  0  0  0  0  0  0  0  0  0  0  0
   -2.0921    1.8070    3.1565 H   0  0  0  0  0  0  0  0  0  0  0  0
   -4.3078    0.4416    1.6717 H   0  0  0  0  0  0  0  0  0  0  0  0
   -4.4079    1.0906    3.2909 H   0  0  0  0  0  0  0  0  0  0  0  0
   -3.3506   -0.2593    2.9545 H   0  0  0  0  0  0  0  0  0  0  0  0
  1  2  1  0  0  0  0
  2  3  2  0  0  0  0
  2  4  1  0  0  0  0
  3  5  1  0  0  0  0
  3  6  1  0  0  0  0
  4  7  1  0  0  0  0
  4  8  2  0  0  0  0
  6  9  1  0  0  0  0
  6 10  2  0  0  0  0
  7 11  1  0  0  0  0
  8 10  1  0  0  0  0
  8 20  1  0  0  0  0
  9 12  2  0  0  0  0
  9 13  1  0  0  0  0
 10 21  1  0  0  0  0
 11 14  1  0  0  0  0
 11 22  1  0  0  0  0
 11 23  1  0  0  0  0
 13 15  2  0  0  0  0
 13 16  1  0  0  0  0
 14 17  2  0  0  0  0
 14 18  1  0  0  0  0
 15 24  1  0  0  0  0
 15 25  1  0  0  0  0
 16 19  1  0  0  0  0
 16 26  1  0  0  0  0
 16 27  1  0  0  0  0
 19 28  1  0  0  0  0
 19 29  1  0  0  0  0
 19 30  1  0  0  0  0
M  CHG  1  18  -1
M  END
>  <Column 1>
C=C(CC)C(=O)c1ccc(OCC(=O)[O-])c(Cl)c1Cl ZINC000000001382

>  <Column 2>
Decoy95

>  <MMFF94 Energy>
105.52

$$$$
Decoy96
 OpenBabel07082414533D

 38 41  0  0  0  0  0  0  0  0999 V2000
    2.0787    0.8131    1.5362 Cl  0  0  0  0  0  0  0  0  0  0  0  0
    0.6799    0.8101    2.5497 C   0  0  0  0  0  0  0  0  0  0  0  0
   -0.6205    0.9657    2.0535 C   0  0  0  0  0  0  0  0  0  0  0  0
    0.8813    0.6833    3.9280 C   0  0  0  0  0  0  0  0  0  0  0  0
   -0.9194    1.0936    0.6038 C   0  0  0  0  0  0  0  0  0  0  0  0
   -1.7058    1.0293    2.9407 C   0  0  0  0  0  0  0  0  0  0  0  0
   -0.2039    0.7244    4.8065 C   0  0  0  0  0  0  0  0  0  0  0  0
   -1.5289    2.1571    0.2122 N   0  0  0  0  0  0  0  0  0  0  0  0
   -0.5241   -0.0154   -0.2724 C   0  0  0  0  0  0  0  0  0  0  0  0
   -1.4957    0.9031    4.3141 C   0  0  0  0  0  0  0  0  0  0  0  0
   -1.9348    2.3383   -1.1751 C   0  0  0  0  0  0  0  0  0  0  0  0
   -0.0277    0.1111   -1.5592 C   0  0  0  0  0  0  0  0  0  0  0  0
   -0.5031   -1.4043    0.1178 C   0  0  0  0  0  0  0  0  0  0  0  0
   -0.7915    2.3759   -2.1162 C   0  0  0  0  0  0  0  0  0  0  0  0
    0.4846   -1.3546   -2.2336 S   0  0  0  0  0  0  0  0  0  0  0  0
    0.0435    1.2906   -2.3084 N   0  0  0  0  0  0  0  0  0  0  0  0
    0.0221   -2.2365   -0.8492 C   0  0  0  0  0  0  0  0  0  0  0  0
   -0.5090    3.3310   -2.9740 N   0  0  0  0  0  0  0  0  0  0  0  0
    0.8515    1.6794   -3.3714 C   0  0  0  0  0  0  0  0  0  0  0  0
    0.2159   -3.7218   -0.7886 C   0  0  0  0  0  0  0  0  0  0  0  0
    0.5164    2.8945   -3.7595 N   0  0  0  0  0  0  0  0  0  0  0  0
    1.9869    0.9176   -3.9421 C   0  0  0  0  0  0  0  0  0  0  0  0
    1.5455   -4.0882   -0.1462 C   0  0  0  0  0  0  0  0  0  0  0  0
    1.8367    0.5587    4.2978 H   0  0  0  0  0  0  0  0  0  0  0  0
   -2.6612    1.1697    2.5766 H   0  0  0  0  0  0  0  0  0  0  0  0
   -0.0491    0.6223    5.8217 H   0  0  0  0  0  0  0  0  0  0  0  0
   -2.2958    0.9420    4.9648 H   0  0  0  0  0  0  0  0  0  0  0  0
   -2.4717    3.2604   -1.2549 H   0  0  0  0  0  0  0  0  0  0  0  0
   -2.5398    1.4972   -1.4424 H   0  0  0  0  0  0  0  0  0  0  0  0
   -0.8470   -1.7420    1.0303 H   0  0  0  0  0  0  0  0  0  0  0  0
    0.1906   -4.1160   -1.7830 H   0  0  0  0  0  0  0  0  0  0  0  0
   -0.5693   -4.1374   -0.1922 H   0  0  0  0  0  0  0  0  0  0  0  0
    2.0525   -0.0370   -3.4633 H   0  0  0  0  0  0  0  0  0  0  0  0
    2.8958    1.4595   -3.7832 H   0  0  0  0  0  0  0  0  0  0  0  0
    1.8324    0.7802   -4.9919 H   0  0  0  0  0  0  0  0  0  0  0  0
    2.3465   -3.6817   -0.7276 H   0  0  0  0  0  0  0  0  0  0  0  0
    1.6399   -5.1532   -0.1043 H   0  0  0  0  0  0  0  0  0  0  0  0
    1.5852   -3.6873    0.8451 H   0  0  0  0  0  0  0  0  0  0  0  0
  1  2  1  0  0  0  0
  2  3  2  0  0  0  0
  2  4  1  0  0  0  0
  3  5  1  0  0  0  0
  3  6  1  0  0  0  0
  4  7  2  0  0  0  0
  4 24  1  0  0  0  0
  5  8  2  0  0  0  0
  5  9  1  0  0  0  0
  6 10  2  0  0  0  0
  6 25  1  0  0  0  0
  7 10  1  0  0  0  0
  7 26  1  0  0  0  0
  8 11  1  0  0  0  0
  9 12  2  0  0  0  0
  9 13  1  0  0  0  0
 10 27  1  0  0  0  0
 11 14  1  0  0  0  0
 11 28  1  0  0  0  0
 11 29  1  0  0  0  0
 12 15  1  0  0  0  0
 12 16  1  0  0  0  0
 13 17  2  0  0  0  0
 13 30  1  0  0  0  0
 14 18  2  0  0  0  0
 14 16  1  0  0  0  0
 15 17  1  0  0  0  0
 16 19  1  0  0  0  0
 17 20  1  0  0  0  0
 18 21  1  0  0  0  0
 19 22  1  0  0  0  0
 19 21  2  0  0  0  0
 20 23  1  0  0  0  0
 20 31  1  0  0  0  0
 20 32  1  0  0  0  0
 22 33  1  0  0  0  0
 22 34  1  0  0  0  0
 22 35  1  0  0  0  0
 23 36  1  0  0  0  0
 23 37  1  0  0  0  0
 23 38  1  0  0  0  0
M  END
>  <Column 1>
CCc1cc2c(s1)-n1c(C)nnc1CN=C2c1ccccc1Cl ZINC000000001402

>  <Column 2>
Decoy96

>  <MMFF94 Energy>
74.483

$$$$
Decoy97
 OpenBabel07082414533D

 23 24  0  0  0  0  0  0  0  0999 V2000
   -3.7239    1.6338    4.2697 Cl  0  0  0  0  0  0  0  0  0  0  0  0
   -2.5820    1.0347    3.1306 C   0  0  0  0  0  0  0  0  0  0  0  0
   -1.7259   -0.0031    3.4882 C   0  0  0  0  0  0  0  0  0  0  0  0
   -2.5173    1.5876    1.8565 C   0  0  0  0  0  0  0  0  0  0  0  0
   -0.7954   -0.4932    2.5625 C   0  0  0  0  0  0  0  0  0  0  0  0
   -1.5869    1.0950    0.9353 C   0  0  0  0  0  0  0  0  0  0  0  0
   -0.7071    0.0473    1.2679 C   0  0  0  0  0  0  0  0  0  0  0  0
    0.2487   -0.4269    0.2430 C   0  0  0  0  0  0  0  0  0  0  0  0
    1.3906   -1.6794    0.5575 S   0  0  0  0  0  0  0  0  0  0  0  0
    0.3016    0.0606   -0.9822 N   0  0  0  0  0  0  0  0  0  0  0  0
    1.9857   -1.5449   -1.0369 C   0  0  0  0  0  0  0  0  0  0  0  0
    1.3082   -0.5561   -1.7247 C   0  0  0  0  0  0  0  0  0  0  0  0
    1.5026   -0.1264   -3.1416 C   0  0  0  0  0  0  0  0  0  0  0  0
    2.8948   -0.4589   -3.6704 C   0  0  0  0  0  0  0  0  0  0  0  0
    3.0570   -1.6511   -4.0673 O   0  0  0  0  0  0  0  0  0  0  0  0
    3.7262    0.4943   -3.6699 O   0  5  0  0  0  0  0  0  0  0  0  0
   -1.7766   -0.4113    4.4347 H   0  0  0  0  0  0  0  0  0  0  0  0
   -3.1521    2.3571    1.5919 H   0  0  0  0  0  0  0  0  0  0  0  0
   -0.1648   -1.2632    2.8354 H   0  0  0  0  0  0  0  0  0  0  0  0
   -1.5444    1.5088   -0.0092 H   0  0  0  0  0  0  0  0  0  0  0  0
    2.7451   -2.1213   -1.4319 H   0  0  0  0  0  0  0  0  0  0  0  0
    1.3570    0.9319   -3.2017 H   0  0  0  0  0  0  0  0  0  0  0  0
    0.7931   -0.6573   -3.7413 H   0  0  0  0  0  0  0  0  0  0  0  0
  1  2  1  0  0  0  0
  2  3  2  0  0  0  0
  2  4  1  0  0  0  0
  3  5  1  0  0  0  0
  3 17  1  0  0  0  0
  4  6  2  0  0  0  0
  4 18  1  0  0  0  0
  5  7  2  0  0  0  0
  5 19  1  0  0  0  0
  6  7  1  0  0  0  0
  6 20  1  0  0  0  0
  7  8  1  0  0  0  0
  8  9  1  0  0  0  0
  8 10  2  0  0  0  0
  9 11  1  0  0  0  0
 10 12  1  0  0  0  0
 11 12  2  0  0  0  0
 11 21  1  0  0  0  0
 12 13  1  0  0  0  0
 13 14  1  0  0  0  0
 13 22  1  0  0  0  0
 13 23  1  0  0  0  0
 14 15  2  0  0  0  0
 14 16  1  0  0  0  0
M  CHG  1  16  -1
M  END
>  <Column 1>
O=C([O-])Cc1csc(-c2ccc(Cl)cc2)n1 ZINC000000001430

>  <Column 2>
Decoy97

>  <MMFF94 Energy>
57.244

$$$$
Decoy98
 OpenBabel07082414533D

 31 31  0  0  0  0  0  0  0  0999 V2000
    1.2445   -1.3403    2.9694 S   0  0  0  0  0  0  0  0  0  0  0  0
    1.2505   -1.9107    1.1109 P   0  0  0  0  0  0  0  0  0  0  0  0
   -0.1276   -1.6764    0.2816 O   0  0  0  0  0  0  0  0  0  0  0  0
    2.3462   -1.2386    0.1253 O   0  0  0  0  0  0  0  0  0  0  0  0
    1.4734   -3.4911    0.8258 O   0  0  0  0  0  0  0  0  0  0  0  0
   -0.6426   -0.4240    0.1071 C   0  0  0  0  0  0  0  0  0  0  0  0
    3.7234   -1.3956    0.3839 C   0  0  0  0  0  0  0  0  0  0  0  0
    2.3114   -4.2572    1.6651 C   0  0  0  0  0  0  0  0  0  0  0  0
   -0.1126    0.4293   -0.8571 C   0  0  0  0  0  0  0  0  0  0  0  0
   -1.7385   -0.0397    0.8683 C   0  0  0  0  0  0  0  0  0  0  0  0
   -0.6590    1.7094   -1.0534 C   0  0  0  0  0  0  0  0  0  0  0  0
   -2.2906    1.2279    0.6845 C   0  0  0  0  0  0  0  0  0  0  0  0
   -1.7637    2.1067   -0.2744 C   0  0  0  0  0  0  0  0  0  0  0  0
   -0.0476    2.6086   -2.0933 C   0  0  0  0  0  0  0  0  0  0  0  0
   -2.5240    3.7187   -0.4497 S   0  0  0  0  0  0  0  0  0  0  0  0
   -4.0154    3.2260   -1.3519 C   0  0  0  0  0  0  0  0  0  0  0  0
    4.2880   -0.8857   -0.3685 H   0  0  0  0  0  0  0  0  0  0  0  0
    3.9721   -2.4362    0.3725 H   0  0  0  0  0  0  0  0  0  0  0  0
    3.9552   -0.9840    1.3440 H   0  0  0  0  0  0  0  0  0  0  0  0
    2.3327   -5.2697    1.3197 H   0  0  0  0  0  0  0  0  0  0  0  0
    1.9348   -4.2297    2.6662 H   0  0  0  0  0  0  0  0  0  0  0  0
    3.3018   -3.8528    1.6454 H   0  0  0  0  0  0  0  0  0  0  0  0
    0.6869    0.1198   -1.4316 H   0  0  0  0  0  0  0  0  0  0  0  0
   -2.1412   -0.6866    1.5643 H   0  0  0  0  0  0  0  0  0  0  0  0
   -3.0951    1.5227    1.2598 H   0  0  0  0  0  0  0  0  0  0  0  0
    0.7739    2.1067   -2.5603 H   0  0  0  0  0  0  0  0  0  0  0  0
    0.3012    3.5067   -1.6277 H   0  0  0  0  0  0  0  0  0  0  0  0
   -0.7831    2.8519   -2.8314 H   0  0  0  0  0  0  0  0  0  0  0  0
   -4.6135    4.0905   -1.5514 H   0  0  0  0  0  0  0  0  0  0  0  0
   -4.5768    2.5325   -0.7613 H   0  0  0  0  0  0  0  0  0  0  0  0
   -3.7369    2.7639   -2.2759 H   0  0  0  0  0  0  0  0  0  0  0  0
  1  2  2  0  0  0  0
  2  3  1  0  0  0  0
  2  4  1  0  0  0  0
  2  5  1  0  0  0  0
  3  6  1  0  0  0  0
  4  7  1  0  0  0  0
  5  8  1  0  0  0  0
  6  9  2  0  0  0  0
  6 10  1  0  0  0  0
  7 17  1  0  0  0  0
  7 18  1  0  0  0  0
  7 19  1  0  0  0  0
  8 20  1  0  0  0  0
  8 21  1  0  0  0  0
  8 22  1  0  0  0  0
  9 11  1  0  0  0  0
  9 23  1  0  0  0  0
 10 12  2  0  0  0  0
 10 24  1  0  0  0  0
 11 13  2  0  0  0  0
 11 14  1  0  0  0  0
 12 13  1  0  0  0  0
 12 25  1  0  0  0  0
 13 15  1  0  0  0  0
 14 26  1  0  0  0  0
 14 27  1  0  0  0  0
 14 28  1  0  0  0  0
 15 16  1  0  0  0  0
 16 29  1  0  0  0  0
 16 30  1  0  0  0  0
 16 31  1  0  0  0  0
M  END
>  <Column 1>
COP(=S)(OC)Oc1ccc(SC)c(C)c1 ZINC000000001443

>  <Column 2>
Decoy98

>  <MMFF94 Energy>
-28.02

$$$$
Decoy99
 OpenBabel07082414533D

 40 42  0  0  0  0  0  0  0  0999 V2000
    6.0314   -0.1745   -1.1344 F   0  0  0  0  0  0  0  0  0  0  0  0
    5.4400    0.2201    0.0212 C   0  0  0  0  0  0  0  0  0  0  0  0
    5.9638    1.4261    0.3554 F   0  0  0  0  0  0  0  0  0  0  0  0
    5.8509   -0.6570    0.9814 F   0  0  0  0  0  0  0  0  0  0  0  0
    3.9518    0.2460   -0.0746 C   0  0  0  0  0  0  0  0  0  0  0  0
    3.1774    0.9712   -0.8611 N   0  0  0  0  0  0  0  0  0  0  0  0
    3.1830   -0.5611    0.7269 N   0  0  0  0  0  0  0  0  0  0  0  0
    1.8810    0.6141   -0.5569 C   0  0  0  0  0  0  0  0  0  0  0  0
    1.8499   -0.3111    0.4791 C   0  0  0  0  0  0  0  0  0  0  0  0
    0.7525    1.1828   -1.2735 C   0  0  0  0  0  0  0  0  0  0  0  0
    0.7823   -0.9675    1.2336 C   0  0  0  0  0  0  0  0  0  0  0  0
   -0.3082    0.3876   -1.7244 C   0  0  0  0  0  0  0  0  0  0  0  0
    0.7352    2.5528   -1.5540 C   0  0  0  0  0  0  0  0  0  0  0  0
    0.8510   -2.3353    1.5255 C   0  0  0  0  0  0  0  0  0  0  0  0
   -0.3800   -0.2713    1.5886 C   0  0  0  0  0  0  0  0  0  0  0  0
   -1.3843    0.9568   -2.4179 C   0  0  0  0  0  0  0  0  0  0  0  0
   -0.3397    3.1192   -2.2453 C   0  0  0  0  0  0  0  0  0  0  0  0
   -0.1993   -2.9737    2.1934 C   0  0  0  0  0  0  0  0  0  0  0  0
   -1.4315   -0.9111    2.2581 C   0  0  0  0  0  0  0  0  0  0  0  0
   -1.4052    2.3270   -2.6782 C   0  0  0  0  0  0  0  0  0  0  0  0
   -1.3432   -2.2666    2.5666 C   0  0  0  0  0  0  0  0  0  0  0  0
   -2.3912    3.0059   -3.3393 O   0  0  0  0  0  0  0  0  0  0  0  0
   -2.2913   -3.0105    3.2117 O   0  0  0  0  0  0  0  0  0  0  0  0
   -3.4770    2.2361   -3.8393 C   0  0  0  0  0  0  0  0  0  0  0  0
   -3.4726   -2.3314    3.6198 C   0  0  0  0  0  0  0  0  0  0  0  0
    3.5290   -1.2152    1.3762 H   0  0  0  0  0  0  0  0  0  0  0  0
   -0.2972   -0.6284   -1.5440 H   0  0  0  0  0  0  0  0  0  0  0  0
    1.5204    3.1490   -1.2489 H   0  0  0  0  0  0  0  0  0  0  0  0
    1.6836   -2.8770    1.2455 H   0  0  0  0  0  0  0  0  0  0  0  0
   -0.4634    0.7300    1.3530 H   0  0  0  0  0  0  0  0  0  0  0  0
   -2.1638    0.3605   -2.7371 H   0  0  0  0  0  0  0  0  0  0  0  0
   -0.3459    4.1331   -2.4377 H   0  0  0  0  0  0  0  0  0  0  0  0
   -0.1274   -3.9795    2.4128 H   0  0  0  0  0  0  0  0  0  0  0  0
   -2.2736   -0.3767    2.5233 H   0  0  0  0  0  0  0  0  0  0  0  0
   -4.1745    2.8810   -4.3317 H   0  0  0  0  0  0  0  0  0  0  0  0
   -3.9641    1.7372   -3.0277 H   0  0  0  0  0  0  0  0  0  0  0  0
   -3.1095    1.5107   -4.5348 H   0  0  0  0  0  0  0  0  0  0  0  0
   -4.1290   -3.0203    4.1092 H   0  0  0  0  0  0  0  0  0  0  0  0
   -3.9623   -1.9205    2.7617 H   0  0  0  0  0  0  0  0  0  0  0  0
   -3.2152   -1.5426    4.2954 H   0  0  0  0  0  0  0  0  0  0  0  0
  1  2  1  0  0  0  0
  2  3  1  0  0  0  0
  2  4  1  0  0  0  0
  2  5  1  0  0  0  0
  5  6  2  0  0  0  0
  5  7  1  0  0  0  0
  6  8  1  0  0  0  0
  7  9  1  0  0  0  0
  7 26  1  0  0  0  0
  8 10  1  0  0  0  0
  8  9  2  0  0  0  0
  9 11  1  0  0  0  0
 10 12  2  0  0  0  0
 10 13  1  0  0  0  0
 11 14  2  0  0  0  0
 11 15  1  0  0  0  0
 12 16  1  0  0  0  0
 12 27  1  0  0  0  0
 13 17  2  0  0  0  0
 13 28  1  0  0  0  0
 14 18  1  0  0  0  0
 14 29  1  0  0  0  0
 15 19  2  0  0  0  0
 15 30  1  0  0  0  0
 16 20  2  0  0  0  0
 16 31  1  0  0  0  0
 17 20  1  0  0  0  0
 17 32  1  0  0  0  0
 18 21  2  0  0  0  0
 18 33  1  0  0  0  0
 19 21  1  0  0  0  0
 19 34  1  0  0  0  0
 20 22  1  0  0  0  0
 21 23  1  0  0  0  0
 22 24  1  0  0  0  0
 23 25  1  0  0  0  0
 24 35  1  0  0  0  0
 24 36  1  0  0  0  0
 24 37  1  0  0  0  0
 25 38  1  0  0  0  0
 25 39  1  0  0  0  0
 25 40  1  0  0  0  0
M  END
>  <Column 1>
COc1ccc(-c2nc(C(F)(F)F)[nH]c2-c2ccc(OC)cc2)cc1 ZINC000000001465

>  <Column 2>
Decoy99

>  <MMFF94 Energy>
92.461

$$$$
Decoy100
 OpenBabel07082414533D

 46 48  0  0  0  0  0  0  0  0999 V2000
   -0.4584   -0.1833   -0.0000 S   0  0  0  0  0  0  0  0  0  0  0  0
    0.9023    0.0660   -0.4516 O   0  0  0  0  0  0  0  0  0  0  0  0
   -1.0224    0.5564    1.1206 O   0  0  0  0  0  0  0  0  0  0  0  0
   -0.8111   -1.7540    0.0551 N   0  3  0  0  0  0  0  0  0  0  0  0
   -1.4432    0.3644   -1.4138 C   0  0  0  0  0  0  0  0  0  0  0  0
   -0.5687   -2.5088    1.0676 C   0  0  0  0  0  0  0  0  0  0  0  0
   -1.9932    1.6524   -1.4053 C   0  0  0  0  0  0  0  0  0  0  0  0
   -1.6603   -0.5186   -2.4884 C   0  0  0  0  0  0  0  0  0  0  0  0
   -0.8833   -3.7054    1.1898 O   0  5  0  0  0  0  0  0  0  0  0  0
    0.0557   -2.2426    2.2606 N   0  0  0  0  0  0  0  0  0  0  0  0
   -2.7446    2.0392   -2.5020 C   0  0  0  0  0  0  0  0  0  0  0  0
   -2.4321   -0.1162   -3.5808 C   0  0  0  0  0  0  0  0  0  0  0  0
    1.2733   -1.4996    2.2365 N   0  0  0  0  0  0  0  0  0  0  0  0
   -2.9605    1.1655   -3.5763 C   0  0  0  0  0  0  0  0  0  0  0  0
   -3.4655    3.3325   -2.7133 C   0  0  0  0  0  0  0  0  0  0  0  0
    2.4067   -2.4033    2.0308 C   0  0  0  0  0  0  0  0  0  0  0  0
    1.3212   -0.7116    3.4674 C   0  0  0  0  0  0  0  0  0  0  0  0
   -3.8462    1.7980   -4.6033 C   0  0  0  0  0  0  0  0  0  0  0  0
   -3.7301    3.2819   -4.2251 C   0  0  0  0  0  0  0  0  0  0  0  0
    3.5216   -1.7149    1.2385 C   0  0  0  0  0  0  0  0  0  0  0  0
    2.6629   -0.0637    3.8208 C   0  0  0  0  0  0  0  0  0  0  0  0
    4.3022   -0.6329    1.9786 C   0  0  0  0  0  0  0  0  0  0  0  0
    3.4548    0.4596    2.6266 C   0  0  0  0  0  0  0  0  0  0  0  0
   -1.2378   -2.1605   -0.7336 H   0  0  0  0  0  0  0  0  0  0  0  0
   -1.8435    2.2913   -0.6088 H   0  0  0  0  0  0  0  0  0  0  0  0
   -1.2486   -1.4647   -2.4691 H   0  0  0  0  0  0  0  0  0  0  0  0
   -0.3271   -2.5565    3.1116 H   0  0  0  0  0  0  0  0  0  0  0  0
   -2.6046   -0.7568   -4.3713 H   0  0  0  0  0  0  0  0  0  0  0  0
   -2.8539    4.1701   -2.4499 H   0  0  0  0  0  0  0  0  0  0  0  0
   -4.3462    3.4473   -2.1166 H   0  0  0  0  0  0  0  0  0  0  0  0
    2.0737   -3.2645    1.4900 H   0  0  0  0  0  0  0  0  0  0  0  0
    2.7938   -2.6872    2.9871 H   0  0  0  0  0  0  0  0  0  0  0  0
    1.0508   -1.3579    4.2762 H   0  0  0  0  0  0  0  0  0  0  0  0
    0.6504    0.1056    3.3029 H   0  0  0  0  0  0  0  0  0  0  0  0
   -4.8545    1.4498   -4.5194 H   0  0  0  0  0  0  0  0  0  0  0  0
   -3.5714    1.5799   -5.6141 H   0  0  0  0  0  0  0  0  0  0  0  0
   -2.9199    3.7356   -4.7567 H   0  0  0  0  0  0  0  0  0  0  0  0
   -4.6231    3.8145   -4.4776 H   0  0  0  0  0  0  0  0  0  0  0  0
    3.0787   -1.2652    0.3745 H   0  0  0  0  0  0  0  0  0  0  0  0
    4.2335   -2.4827    1.0183 H   0  0  0  0  0  0  0  0  0  0  0  0
    3.2625   -0.7932    4.3240 H   0  0  0  0  0  0  0  0  0  0  0  0
    2.4357    0.7876    4.4280 H   0  0  0  0  0  0  0  0  0  0  0  0
    4.9636   -0.1661    1.2789 H   0  0  0  0  0  0  0  0  0  0  0  0
    4.8059   -1.1299    2.7812 H   0  0  0  0  0  0  0  0  0  0  0  0
    4.1000    1.2462    2.9580 H   0  0  0  0  0  0  0  0  0  0  0  0
    2.7568    0.8129    1.8966 H   0  0  0  0  0  0  0  0  0  0  0  0
  1  2  2  0  0  0  0
  1  3  2  0  0  0  0
  1  4  1  0  0  0  0
  1  5  1  0  0  0  0
  4  6  2  0  0  0  0
  4 24  1  0  0  0  0
  5  7  2  0  0  0  0
  5  8  1  0  0  0  0
  6  9  1  0  0  0  0
  6 10  1  0  0  0  0
  7 11  1  0  0  0  0
  7 25  1  0  0  0  0
  8 12  2  0  0  0  0
  8 26  1  0  0  0  0
 10 13  1  0  0  0  0
 10 27  1  0  0  0  0
 11 14  2  0  0  0  0
 11 15  1  0  0  0  0
 12 14  1  0  0  0  0
 12 28  1  0  0  0  0
 13 16  1  0  0  0  0
 13 17  1  0  0  0  0
 14 18  1  0  0  0  0
 15 19  1  0  0  0  0
 15 29  1  0  0  0  0
 15 30  1  0  0  0  0
 16 20  1  0  0  0  0
 16 31  1  0  0  0  0
 16 32  1  0  0  0  0
 17 21  1  0  0  0  0
 17 33  1  0  0  0  0
 17 34  1  0  0  0  0
 18 19  1  0  0  0  0
 18 35  1  0  0  0  0
 18 36  1  0  0  0  0
 19 37  1  0  0  0  0
 19 38  1  0  0  0  0
 20 22  1  0  0  0  0
 20 39  1  0  0  0  0
 20 40  1  0  0  0  0
 21 23  1  0  0  0  0
 21 41  1  0  0  0  0
 21 42  1  0  0  0  0
 22 23  1  0  0  0  0
 22 43  1  0  0  0  0
 22 44  1  0  0  0  0
 23 45  1  0  0  0  0
 23 46  1  0  0  0  0
M  CHG  2   4   1   9  -1
M  END
>  <Column 1>
O=S(=O)(N=C([O-])NN1CCCCCC1)c1ccc2c(c1)CCC2 ZINC000000001509

>  <Column 2>
Decoy100

>  <MMFF94 Energy>
18.131

$$$$
Decoy101
 OpenBabel07082414533D

 40 41  0  0  0  0  0  0  0  0999 V2000
   -1.9213   -0.0914    1.5552 S   0  0  0  0  0  0  0  0  0  0  0  0
   -2.2783   -1.3516    2.2023 O   0  0  0  0  0  0  0  0  0  0  0  0
   -2.1151    1.1253    2.3320 O   0  0  0  0  0  0  0  0  0  0  0  0
   -0.4020   -0.2288    1.0165 N   0  3  0  0  0  0  0  0  0  0  0  0
   -3.0010   -0.0163    0.1309 C   0  0  0  0  0  0  0  0  0  0  0  0
    0.1129    0.5876    0.1599 C   0  0  0  0  0  0  0  0  0  0  0  0
   -3.7273    1.1439   -0.1437 C   0  0  0  0  0  0  0  0  0  0  0  0
   -3.1539   -1.1567   -0.6629 C   0  0  0  0  0  0  0  0  0  0  0  0
   -0.2894    1.5860   -0.4451 O   0  5  0  0  0  0  0  0  0  0  0  0
    1.3939    0.4669   -0.2789 N   0  0  0  0  0  0  0  0  0  0  0  0
   -4.6074    1.1643   -1.2277 C   0  0  0  0  0  0  0  0  0  0  0  0
   -4.0368   -1.1312   -1.7441 C   0  0  0  0  0  0  0  0  0  0  0  0
    2.4496   -0.1343    0.5103 C   0  0  0  0  0  0  0  0  0  0  0  0
   -4.7794    0.0244   -2.0269 C   0  0  0  0  0  0  0  0  0  0  0  0
    3.6352   -0.4485   -0.4115 C   0  0  0  0  0  0  0  0  0  0  0  0
    2.8760    0.8093    1.6426 C   0  0  0  0  0  0  0  0  0  0  0  0
   -5.6887    0.0672   -3.2180 C   0  0  0  0  0  0  0  0  0  0  0  0
    4.8230   -1.0059    0.3685 C   0  0  0  0  0  0  0  0  0  0  0  0
    4.0657    0.2526    2.4208 C   0  0  0  0  0  0  0  0  0  0  0  0
    5.2388   -0.0720    1.5010 C   0  0  0  0  0  0  0  0  0  0  0  0
    0.1536   -0.9669    1.3568 H   0  0  0  0  0  0  0  0  0  0  0  0
   -3.6146    1.9804    0.4501 H   0  0  0  0  0  0  0  0  0  0  0  0
   -2.6173   -2.0124   -0.4510 H   0  0  0  0  0  0  0  0  0  0  0  0
    1.6150    0.8045   -1.1769 H   0  0  0  0  0  0  0  0  0  0  0  0
   -5.1353    2.0246   -1.4425 H   0  0  0  0  0  0  0  0  0  0  0  0
   -4.1436   -1.9678   -2.3388 H   0  0  0  0  0  0  0  0  0  0  0  0
    2.0963   -1.0399    0.9576 H   0  0  0  0  0  0  0  0  0  0  0  0
    3.9368    0.4504   -0.9075 H   0  0  0  0  0  0  0  0  0  0  0  0
    3.3222   -1.1889   -1.1177 H   0  0  0  0  0  0  0  0  0  0  0  0
    2.0530    0.9405    2.3136 H   0  0  0  0  0  0  0  0  0  0  0  0
    3.1677    1.7426    1.2082 H   0  0  0  0  0  0  0  0  0  0  0  0
   -6.1660    1.0236   -3.2682 H   0  0  0  0  0  0  0  0  0  0  0  0
   -6.4314   -0.6977   -3.1274 H   0  0  0  0  0  0  0  0  0  0  0  0
   -5.1178   -0.0937   -4.1085 H   0  0  0  0  0  0  0  0  0  0  0  0
    5.6494   -1.1310   -0.2996 H   0  0  0  0  0  0  0  0  0  0  0  0
    4.5327   -1.9426    0.7965 H   0  0  0  0  0  0  0  0  0  0  0  0
    3.7627   -0.6411    2.9251 H   0  0  0  0  0  0  0  0  0  0  0  0
    4.3855    0.9972    3.1195 H   0  0  0  0  0  0  0  0  0  0  0  0
    5.6128    0.8382    1.0808 H   0  0  0  0  0  0  0  0  0  0  0  0
    5.9923   -0.5634    2.0804 H   0  0  0  0  0  0  0  0  0  0  0  0
  1  2  2  0  0  0  0
  1  3  2  0  0  0  0
  1  4  1  0  0  0  0
  1  5  1  0  0  0  0
  4  6  2  0  0  0  0
  4 21  1  0  0  0  0
  5  7  2  0  0  0  0
  5  8  1  0  0  0  0
  6  9  1  0  0  0  0
  6 10  1  0  0  0  0
  7 11  1  0  0  0  0
  7 22  1  0  0  0  0
  8 12  2  0  0  0  0
  8 23  1  0  0  0  0
 10 13  1  0  0  0  0
 10 24  1  0  0  0  0
 11 14  2  0  0  0  0
 11 25  1  0  0  0  0
 12 14  1  0  0  0  0
 12 26  1  0  0  0  0
 13 15  1  0  0  0  0
 13 16  1  0  0  0  0
 13 27  1  0  0  0  0
 14 17  1  0  0  0  0
 15 18  1  0  0  0  0
 15 28  1  0  0  0  0
 15 29  1  0  0  0  0
 16 19  1  0  0  0  0
 16 30  1  0  0  0  0
 16 31  1  0  0  0  0
 17 32  1  0  0  0  0
 17 33  1  0  0  0  0
 17 34  1  0  0  0  0
 18 20  1  0  0  0  0
 18 35  1  0  0  0  0
 18 36  1  0  0  0  0
 19 20  1  0  0  0  0
 19 37  1  0  0  0  0
 19 38  1  0  0  0  0
 20 39  1  0  0  0  0
 20 40  1  0  0  0  0
M  CHG  2   4   1   9  -1
M  END
>  <Column 1>
Cc1ccc(S(=O)(=O)N=C([O-])NC2CCCCC2)cc1 ZINC000000001514

>  <Column 2>
Decoy101

>  <MMFF94 Energy>
-57.613

$$$$
Decoy102
 OpenBabel07082414533D

 44 46  0  0  0  0  0  0  0  0999 V2000
    1.2861   -0.9185   -2.9413 S   0  0  0  0  0  0  0  0  0  0  0  0
    2.3984   -0.6534   -3.8440 O   0  0  0  0  0  0  0  0  0  0  0  0
    1.2218   -2.2167   -2.2875 O   0  0  0  0  0  0  0  0  0  0  0  0
   -0.0872   -0.4915   -3.6543 N   0  3  0  0  0  0  0  0  0  0  0  0
    1.5188    0.2895   -1.6327 C   0  0  0  0  0  0  0  0  0  0  0  0
   -1.2793   -0.8166   -3.3135 C   0  0  0  0  0  0  0  0  0  0  0  0
    2.2088   -0.0891   -0.4742 C   0  0  0  0  0  0  0  0  0  0  0  0
    0.9749    1.5795   -1.7738 C   0  0  0  0  0  0  0  0  0  0  0  0
   -2.3235   -0.5032   -3.9020 O   0  5  0  0  0  0  0  0  0  0  0  0
   -1.7746   -1.5645   -2.2913 N   0  0  0  0  0  0  0  0  0  0  0  0
    2.3267    0.8459    0.5393 C   0  0  0  0  0  0  0  0  0  0  0  0
    1.1166    2.5152   -0.7472 C   0  0  0  0  0  0  0  0  0  0  0  0
   -1.5430   -1.3074   -0.8793 C   0  0  0  0  0  0  0  0  0  0  0  0
    1.7868    2.1319    0.4039 C   0  0  0  0  0  0  0  0  0  0  0  0
    3.0261    0.6971    1.8527 C   0  0  0  0  0  0  0  0  0  0  0  0
   -2.2516   -0.0231   -0.4281 C   0  0  0  0  0  0  0  0  0  0  0  0
   -2.0499   -2.5108   -0.0720 C   0  0  0  0  0  0  0  0  0  0  0  0
    2.0780    2.9591    1.6162 C   0  0  0  0  0  0  0  0  0  0  0  0
    2.4282    1.8711    2.6418 C   0  0  0  0  0  0  0  0  0  0  0  0
   -2.0858    0.2074    1.0722 C   0  0  0  0  0  0  0  0  0  0  0  0
   -1.8880   -2.2847    1.4295 C   0  0  0  0  0  0  0  0  0  0  0  0
   -2.5655   -0.9941    1.8810 C   0  0  0  0  0  0  0  0  0  0  0  0
   -0.0041    0.0878   -4.4459 H   0  0  0  0  0  0  0  0  0  0  0  0
    2.6154   -1.0329   -0.3796 H   0  0  0  0  0  0  0  0  0  0  0  0
    0.4705    1.8344   -2.6373 H   0  0  0  0  0  0  0  0  0  0  0  0
   -2.3335   -2.3404   -2.5258 H   0  0  0  0  0  0  0  0  0  0  0  0
    0.7321    3.4681   -0.8431 H   0  0  0  0  0  0  0  0  0  0  0  0
   -0.4949   -1.1709   -0.7125 H   0  0  0  0  0  0  0  0  0  0  0  0
    4.0862    0.7954    1.7461 H   0  0  0  0  0  0  0  0  0  0  0  0
    2.8925   -0.2579    2.3164 H   0  0  0  0  0  0  0  0  0  0  0  0
   -3.2943   -0.1028   -0.6549 H   0  0  0  0  0  0  0  0  0  0  0  0
   -1.8122    0.8036   -0.9463 H   0  0  0  0  0  0  0  0  0  0  0  0
   -1.4925   -3.3792   -0.3551 H   0  0  0  0  0  0  0  0  0  0  0  0
   -3.0909   -2.6417   -0.2818 H   0  0  0  0  0  0  0  0  0  0  0  0
    1.2217    3.5240    1.9205 H   0  0  0  0  0  0  0  0  0  0  0  0
    2.8444    3.6921    1.4742 H   0  0  0  0  0  0  0  0  0  0  0  0
    3.1425    2.2441    3.3458 H   0  0  0  0  0  0  0  0  0  0  0  0
    1.5614    1.5651    3.1895 H   0  0  0  0  0  0  0  0  0  0  0  0
   -2.6555    1.0673    1.3565 H   0  0  0  0  0  0  0  0  0  0  0  0
   -1.0456    0.3541    1.2755 H   0  0  0  0  0  0  0  0  0  0  0  0
   -0.8450   -2.2285    1.6614 H   0  0  0  0  0  0  0  0  0  0  0  0
   -2.3508   -3.1019    1.9422 H   0  0  0  0  0  0  0  0  0  0  0  0
   -3.6234   -1.0959    1.7567 H   0  0  0  0  0  0  0  0  0  0  0  0
   -2.3146   -0.8270    2.9076 H   0  0  0  0  0  0  0  0  0  0  0  0
  1  2  2  0  0  0  0
  1  3  2  0  0  0  0
  1  4  1  0  0  0  0
  1  5  1  0  0  0  0
  4  6  2  0  0  0  0
  4 23  1  0  0  0  0
  5  7  2  0  0  0  0
  5  8  1  0  0  0  0
  6  9  1  0  0  0  0
  6 10  1  0  0  0  0
  7 11  1  0  0  0  0
  7 24  1  0  0  0  0
  8 12  2  0  0  0  0
  8 25  1  0  0  0  0
 10 13  1  0  0  0  0
 10 26  1  0  0  0  0
 11 14  2  0  0  0  0
 11 15  1  0  0  0  0
 12 14  1  0  0  0  0
 12 27  1  0  0  0  0
 13 16  1  0  0  0  0
 13 17  1  0  0  0  0
 13 28  1  0  0  0  0
 14 18  1  0  0  0  0
 15 19  1  0  0  0  0
 15 29  1  0  0  0  0
 15 30  1  0  0  0  0
 16 20  1  0  0  0  0
 16 31  1  0  0  0  0
 16 32  1  0  0  0  0
 17 21  1  0  0  0  0
 17 33  1  0  0  0  0
 17 34  1  0  0  0  0
 18 19  1  0  0  0  0
 18 35  1  0  0  0  0
 18 36  1  0  0  0  0
 19 37  1  0  0  0  0
 19 38  1  0  0  0  0
 20 22  1  0  0  0  0
 20 39  1  0  0  0  0
 20 40  1  0  0  0  0
 21 22  1  0  0  0  0
 21 41  1  0  0  0  0
 21 42  1  0  0  0  0
 22 43  1  0  0  0  0
 22 44  1  0  0  0  0
M  CHG  2   4   1   9  -1
M  END
>  <Column 1>
O=S(=O)(N=C([O-])NC1CCCCC1)c1ccc2c(c1)CCC2 ZINC000000001515

>  <Column 2>
Decoy102

>  <MMFF94 Energy>
-44.842

$$$$
Decoy103
 OpenBabel07082414533D

 45 46  0  0  0  0  0  0  0  0999 V2000
   -1.1081   -0.3693    3.0492 S   0  0  2  0  0  0  0  0  0  0  0  0
   -2.5271   -0.0777    3.0927 O   0  0  0  0  0  0  0  0  0  0  0  0
   -0.1449    0.3893    3.8223 O   0  5  0  0  0  0  0  0  0  0  0  0
   -0.5918   -0.4878    1.4476 N   0  0  0  0  0  0  0  0  0  0  0  0
   -0.9243   -2.0754    3.5396 C   0  0  0  0  0  0  0  0  0  0  0  0
   -0.5710    0.6488    0.6261 C   0  0  0  0  0  0  0  0  0  0  0  0
   -1.9964   -2.9580    3.3825 C   0  0  0  0  0  0  0  0  0  0  0  0
    0.2747   -2.5045    4.1150 C   0  0  0  0  0  0  0  0  0  0  0  0
   -0.9047    1.7682    0.9837 O   0  0  0  0  0  0  0  0  0  0  0  0
   -0.1165    0.3538   -0.6336 N   0  0  0  0  0  0  0  0  0  0  0  0
   -1.8547   -4.2883    3.7809 C   0  0  0  0  0  0  0  0  0  0  0  0
    0.4083   -3.8364    4.5109 C   0  0  0  0  0  0  0  0  0  0  0  0
    0.1354    1.3768   -1.6532 C   0  0  0  0  0  0  0  0  0  0  0  0
   -0.6483   -4.7404    4.3335 C   0  0  0  0  0  0  0  0  0  0  0  0
    1.5502    1.9399   -1.4560 C   0  0  0  0  0  0  0  0  0  0  0  0
   -0.1811    0.7699   -3.0321 C   0  0  0  0  0  0  0  0  0  0  0  0
   -0.5138   -6.1620    4.7964 C   0  0  0  0  0  0  0  0  0  0  0  0
    2.0102    3.1153   -2.3240 C   0  0  0  0  0  0  0  0  0  0  0  0
    0.3601    1.4474   -4.2884 C   0  0  0  0  0  0  0  0  0  0  0  0
    0.9974    4.2145   -2.6305 C   0  0  0  0  0  0  0  0  0  0  0  0
   -0.0984    2.8748   -4.5946 C   0  0  0  0  0  0  0  0  0  0  0  0
   -0.2504    3.8670   -3.4463 C   0  0  0  0  0  0  0  0  0  0  0  0
   -2.8857   -2.6289    2.9752 H   0  0  0  0  0  0  0  0  0  0  0  0
    1.0551   -1.8421    4.2462 H   0  0  0  0  0  0  0  0  0  0  0  0
    0.0484   -0.5890   -0.8641 H   0  0  0  0  0  0  0  0  0  0  0  0
   -2.6438   -4.9437    3.6678 H   0  0  0  0  0  0  0  0  0  0  0  0
    1.2914   -4.1579    4.9373 H   0  0  0  0  0  0  0  0  0  0  0  0
   -0.5046    2.2301   -1.5687 H   0  0  0  0  0  0  0  0  0  0  0  0
    2.2345    1.1358   -1.6292 H   0  0  0  0  0  0  0  0  0  0  0  0
    1.5289    2.3453   -0.4660 H   0  0  0  0  0  0  0  0  0  0  0  0
   -1.2468    0.7453   -3.1252 H   0  0  0  0  0  0  0  0  0  0  0  0
    0.3234   -0.1736   -3.0156 H   0  0  0  0  0  0  0  0  0  0  0  0
   -1.4151   -6.6953    4.5769 H   0  0  0  0  0  0  0  0  0  0  0  0
   -0.3376   -6.1783    5.8517 H   0  0  0  0  0  0  0  0  0  0  0  0
    0.3072   -6.6257    4.2905 H   0  0  0  0  0  0  0  0  0  0  0  0
    2.3361    2.7121   -3.2600 H   0  0  0  0  0  0  0  0  0  0  0  0
    2.7652    3.6004   -1.7413 H   0  0  0  0  0  0  0  0  0  0  0  0
    0.0806    0.8385   -5.1227 H   0  0  0  0  0  0  0  0  0  0  0  0
    1.4108    1.5393   -4.1084 H   0  0  0  0  0  0  0  0  0  0  0  0
    1.5185    4.9808   -3.1655 H   0  0  0  0  0  0  0  0  0  0  0  0
    0.6098    4.4816   -1.6696 H   0  0  0  0  0  0  0  0  0  0  0  0
   -1.0525    2.8013   -5.0734 H   0  0  0  0  0  0  0  0  0  0  0  0
    0.7010    3.2804   -5.1789 H   0  0  0  0  0  0  0  0  0  0  0  0
   -0.6244    4.7797   -3.8611 H   0  0  0  0  0  0  0  0  0  0  0  0
   -0.8977    3.3753   -2.7505 H   0  0  0  0  0  0  0  0  0  0  0  0
  1  2  2  1  0  0  0
  1  3  1  0  0  0  0
  1  4  2  0  0  0  0
  1  5  1  0  0  0  0
  4  6  1  0  0  0  0
  5  7  2  0  0  0  0
  5  8  1  0  0  0  0
  6  9  2  0  0  0  0
  6 10  1  0  0  0  0
  7 11  1  0  0  0  0
  7 23  1  0  0  0  0
  8 12  2  0  0  0  0
  8 24  1  0  0  0  0
 10 13  1  0  0  0  0
 10 25  1  0  0  0  0
 11 14  2  0  0  0  0
 11 26  1  0  0  0  0
 12 14  1  0  0  0  0
 12 27  1  0  0  0  0
 13 15  1  0  0  0  0
 13 16  1  0  0  0  0
 13 28  1  0  0  0  0
 14 17  1  0  0  0  0
 15 18  1  0  0  0  0
 15 29  1  0  0  0  0
 15 30  1  0  0  0  0
 16 19  1  0  0  0  0
 16 31  1  0  0  0  0
 16 32  1  0  0  0  0
 17 33  1  0  0  0  0
 17 34  1  0  0  0  0
 17 35  1  0  0  0  0
 18 20  1  0  0  0  0
 18 36  1  0  0  0  0
 18 37  1  0  0  0  0
 19 21  1  0  0  0  0
 19 38  1  0  0  0  0
 19 39  1  0  0  0  0
 20 22  1  0  0  0  0
 20 40  1  0  0  0  0
 20 41  1  0  0  0  0
 21 22  1  0  0  0  0
 21 42  1  0  0  0  0
 21 43  1  0  0  0  0
 22 44  1  0  0  0  0
 22 45  1  0  0  0  0
M  CHG  1   3  -1
M  END
>  <Column 1>
Cc1ccc(S(=O)([O-])=NC(=O)NC2CCCCCCC2)cc1 ZINC000000001516

>  <Column 2>
Decoy103

>  <MMFF94 Energy>
-43.862

$$$$
Decoy104
 OpenBabel07082414533D

 39 40  0  0  0  0  0  0  0  0999 V2000
    2.3025   -3.5934    2.1181 Cl  0  0  0  0  0  0  0  0  0  0  0  0
    1.2142   -3.0362    0.9054 C   0  0  0  0  0  0  0  0  0  0  0  0
   -0.1043   -2.7316    1.2462 C   0  0  0  0  0  0  0  0  0  0  0  0
    1.6643   -2.8865   -0.4081 C   0  0  0  0  0  0  0  0  0  0  0  0
   -0.9858   -2.2717    0.2659 C   0  0  0  0  0  0  0  0  0  0  0  0
    0.7881   -2.4249   -1.3919 C   0  0  0  0  0  0  0  0  0  0  0  0
   -0.5347   -2.1228   -1.0487 C   0  0  0  0  0  0  0  0  0  0  0  0
   -1.6462   -1.5510   -2.3274 S   0  0  0  0  0  0  0  0  0  0  0  0
   -2.1320   -2.7792   -2.9391 O   0  0  0  0  0  0  0  0  0  0  0  0
   -0.8883   -0.6177   -3.1521 O   0  0  0  0  0  0  0  0  0  0  0  0
   -2.8597   -0.8156   -1.5713 N   0  3  0  0  0  0  0  0  0  0  0  0
   -2.8181    0.4123   -1.1679 C   0  0  0  0  0  0  0  0  0  0  0  0
   -3.7478    1.0251   -0.6208 O   0  5  0  0  0  0  0  0  0  0  0  0
   -1.7742    1.3180   -1.3437 N   0  0  0  0  0  0  0  0  0  0  0  0
   -0.6540    1.1819   -0.3995 N   0  0  0  0  0  0  0  0  0  0  0  0
    0.5471    1.6907   -1.0803 C   0  0  0  0  0  0  0  0  0  0  0  0
   -0.9723    1.9370    0.8235 C   0  0  0  0  0  0  0  0  0  0  0  0
    1.7681    2.0203   -0.2155 C   0  0  0  0  0  0  0  0  0  0  0  0
   -0.3219    1.2809    2.0463 C   0  0  0  0  0  0  0  0  0  0  0  0
    2.0027    1.0670    0.9501 C   0  0  0  0  0  0  0  0  0  0  0  0
    1.1874    1.4538    2.1800 C   0  0  0  0  0  0  0  0  0  0  0  0
   -0.4269   -2.8459    2.2198 H   0  0  0  0  0  0  0  0  0  0  0  0
    2.6408   -3.1162   -0.6505 H   0  0  0  0  0  0  0  0  0  0  0  0
   -1.9623   -2.0436    0.5099 H   0  0  0  0  0  0  0  0  0  0  0  0
    1.1131   -2.3074   -2.3643 H   0  0  0  0  0  0  0  0  0  0  0  0
   -3.6825   -1.3302   -1.4058 H   0  0  0  0  0  0  0  0  0  0  0  0
   -1.7853    2.0023   -2.0514 H   0  0  0  0  0  0  0  0  0  0  0  0
    0.2680    2.5866   -1.5944 H   0  0  0  0  0  0  0  0  0  0  0  0
    0.8673    0.8832   -1.7050 H   0  0  0  0  0  0  0  0  0  0  0  0
   -2.0336    1.9575    0.9581 H   0  0  0  0  0  0  0  0  0  0  0  0
   -0.5930    2.9325    0.7232 H   0  0  0  0  0  0  0  0  0  0  0  0
    1.6386    3.0055    0.1813 H   0  0  0  0  0  0  0  0  0  0  0  0
    2.6220    1.9308   -0.8540 H   0  0  0  0  0  0  0  0  0  0  0  0
   -0.5277    0.2318    2.0020 H   0  0  0  0  0  0  0  0  0  0  0  0
   -0.7433    1.7769    2.8956 H   0  0  0  0  0  0  0  0  0  0  0  0
    3.0416    1.0833    1.2056 H   0  0  0  0  0  0  0  0  0  0  0  0
    1.6939    0.0894    0.6438 H   0  0  0  0  0  0  0  0  0  0  0  0
    1.5176    0.8487    2.9984 H   0  0  0  0  0  0  0  0  0  0  0  0
    1.3521    2.5011    2.3250 H   0  0  0  0  0  0  0  0  0  0  0  0
  1  2  1  0  0  0  0
  2  3  2  0  0  0  0
  2  4  1  0  0  0  0
  3  5  1  0  0  0  0
  3 22  1  0  0  0  0
  4  6  2  0  0  0  0
  4 23  1  0  0  0  0
  5  7  2  0  0  0  0
  5 24  1  0  0  0  0
  6  7  1  0  0  0  0
  6 25  1  0  0  0  0
  7  8  1  0  0  0  0
  8  9  2  0  0  0  0
  8 10  2  0  0  0  0
  8 11  1  0  0  0  0
 11 12  2  0  0  0  0
 11 26  1  0  0  0  0
 12 13  1  0  0  0  0
 12 14  1  0  0  0  0
 14 15  1  0  0  0  0
 14 27  1  0  0  0  0
 15 16  1  0  0  0  0
 15 17  1  0  0  0  0
 16 18  1  0  0  0  0
 16 28  1  0  0  0  0
 16 29  1  0  0  0  0
 17 19  1  0  0  0  0
 17 30  1  0  0  0  0
 17 31  1  0  0  0  0
 18 20  1  0  0  0  0
 18 32  1  0  0  0  0
 18 33  1  0  0  0  0
 19 21  1  0  0  0  0
 19 34  1  0  0  0  0
 19 35  1  0  0  0  0
 20 21  1  0  0  0  0
 20 36  1  0  0  0  0
 20 37  1  0  0  0  0
 21 38  1  0  0  0  0
 21 39  1  0  0  0  0
M  CHG  2  11   1  13  -1
M  END
>  <Column 1>
O=S(=O)(N=C([O-])NN1CCCCCC1)c1ccc(Cl)cc1 ZINC000000001517

>  <Column 2>
Decoy104

>  <MMFF94 Energy>
20.927

$$$$
Decoy105
 OpenBabel07082414533D

 37 38  0  0  0  0  0  0  0  0999 V2000
   -0.2764   -0.7371    1.2901 S   0  0  0  0  0  0  0  0  0  0  0  0
    0.3717   -1.9928    1.6718 O   0  0  0  0  0  0  0  0  0  0  0  0
   -1.5657   -0.9032    0.6167 O   0  0  0  0  0  0  0  0  0  0  0  0
    0.6783    0.3939    0.7079 N   0  5  0  0  0  0  0  0  0  0  0  0
   -0.7942   -0.0840    2.9076 C   0  0  0  0  0  0  0  0  0  0  0  0
    1.1938    0.2041   -0.5359 C   0  0  0  0  0  0  0  0  0  0  0  0
   -1.9335    0.7175    2.9884 C   0  0  0  0  0  0  0  0  0  0  0  0
   -0.0624   -0.4061    4.0495 C   0  0  0  0  0  0  0  0  0  0  0  0
    1.0287   -1.2019   -1.5296 S   0  0  0  0  0  0  0  0  0  0  0  0
    1.9293    1.1384   -1.1210 N   0  0  0  0  0  0  0  0  0  0  0  0
   -2.3399    1.2157    4.2298 C   0  0  0  0  0  0  0  0  0  0  0  0
   -0.4751    0.0958    5.2853 C   0  0  0  0  0  0  0  0  0  0  0  0
    1.9703   -0.4141   -2.7197 C   0  0  0  0  0  0  0  0  0  0  0  0
    2.3783    0.7866   -2.3771 N   0  0  0  0  0  0  0  0  0  0  0  0
   -1.6115    0.9081    5.3834 C   0  0  0  0  0  0  0  0  0  0  0  0
    2.2903   -1.0796   -4.0175 C   0  0  0  0  0  0  0  0  0  0  0  0
   -1.9034    1.3317    6.6533 O   0  0  0  0  0  0  0  0  0  0  0  0
    1.1730   -0.9235   -5.0658 C   0  0  0  0  0  0  0  0  0  0  0  0
   -3.0484    2.1609    6.7983 C   0  0  0  0  0  0  0  0  0  0  0  0
    1.4734   -1.8062   -6.2796 C   0  0  0  0  0  0  0  0  0  0  0  0
    1.0047    0.5304   -5.5160 C   0  0  0  0  0  0  0  0  0  0  0  0
   -2.4726    0.9411    2.1373 H   0  0  0  0  0  0  0  0  0  0  0  0
    0.7735   -1.0076    3.9823 H   0  0  0  0  0  0  0  0  0  0  0  0
   -3.1796    1.8120    4.2951 H   0  0  0  0  0  0  0  0  0  0  0  0
    0.0630   -0.1343    6.1353 H   0  0  0  0  0  0  0  0  0  0  0  0
    2.4448   -2.1228   -3.8367 H   0  0  0  0  0  0  0  0  0  0  0  0
    3.1665   -0.6082   -4.4112 H   0  0  0  0  0  0  0  0  0  0  0  0
    0.2562   -1.2300   -4.6070 H   0  0  0  0  0  0  0  0  0  0  0  0
   -3.1703    2.4238    7.8283 H   0  0  0  0  0  0  0  0  0  0  0  0
   -3.9158    1.6337    6.4597 H   0  0  0  0  0  0  0  0  0  0  0  0
   -2.9213    3.0495    6.2160 H   0  0  0  0  0  0  0  0  0  0  0  0
    2.3913   -1.4918   -6.7308 H   0  0  0  0  0  0  0  0  0  0  0  0
    0.6782   -1.7182   -6.9901 H   0  0  0  0  0  0  0  0  0  0  0  0
    1.5607   -2.8256   -5.9664 H   0  0  0  0  0  0  0  0  0  0  0  0
    1.9081    0.8668   -5.9803 H   0  0  0  0  0  0  0  0  0  0  0  0
    0.7903    1.1444   -4.6663 H   0  0  0  0  0  0  0  0  0  0  0  0
    0.1981    0.5959   -6.2160 H   0  0  0  0  0  0  0  0  0  0  0  0
  1  2  2  0  0  0  0
  1  3  2  0  0  0  0
  1  4  1  0  0  0  0
  1  5  1  0  0  0  0
  4  6  1  0  0  0  0
  5  7  2  0  0  0  0
  5  8  1  0  0  0  0
  6  9  1  0  0  0  0
  6 10  2  0  0  0  0
  7 11  1  0  0  0  0
  7 22  1  0  0  0  0
  8 12  2  0  0  0  0
  8 23  1  0  0  0  0
  9 13  1  0  0  0  0
 10 14  1  0  0  0  0
 11 15  2  0  0  0  0
 11 24  1  0  0  0  0
 12 15  1  0  0  0  0
 12 25  1  0  0  0  0
 13 16  1  0  0  0  0
 13 14  2  0  0  0  0
 15 17  1  0  0  0  0
 16 18  1  0  0  0  0
 16 26  1  0  0  0  0
 16 27  1  0  0  0  0
 17 19  1  0  0  0  0
 18 20  1  0  0  0  0
 18 21  1  0  0  0  0
 18 28  1  0  0  0  0
 19 29  1  0  0  0  0
 19 30  1  0  0  0  0
 19 31  1  0  0  0  0
 20 32  1  0  0  0  0
 20 33  1  0  0  0  0
 20 34  1  0  0  0  0
 21 35  1  0  0  0  0
 21 36  1  0  0  0  0
 21 37  1  0  0  0  0
M  CHG  1   4  -1
M  END
>  <Column 1>
COc1ccc(S(=O)(=O)[N-]c2nnc(CC(C)C)s2)cc1 ZINC000000001519

>  <Column 2>
Decoy105

>  <MMFF94 Energy>
62.858

$$$$
Decoy106
 OpenBabel07082414533D

 27 27  0  0  0  0  0  0  0  0999 V2000
    3.1566    0.5566   -1.3918 O   0  0  0  0  0  0  0  0  0  0  0  0
    2.8371    0.7347   -0.1840 C   0  0  0  0  0  0  0  0  0  0  0  0
    3.4580    0.4280    0.8720 O   0  5  0  0  0  0  0  0  0  0  0  0
    1.5116    1.4690    0.0369 C   0  0  0  0  0  0  0  0  0  0  0  0
    0.2211    0.6043    0.1055 C   0  0  0  0  0  0  0  0  0  0  0  0
   -0.0673   -0.0335   -1.2771 C   0  0  0  0  0  0  0  0  0  0  0  0
    0.3830   -0.5250    1.1589 C   0  0  0  0  0  0  0  0  0  0  0  0
   -0.9500    1.5345    0.5397 C   0  0  0  0  0  0  0  0  0  0  0  0
   -1.2466   -1.0072   -1.2558 C   0  0  0  0  0  0  0  0  0  0  0  0
   -0.7778   -1.5229    1.1774 C   0  0  0  0  0  0  0  0  0  0  0  0
   -1.2823    2.5203   -0.4353 O   0  0  0  0  0  0  0  0  0  0  0  0
   -1.0529   -2.0983   -0.2079 C   0  0  0  0  0  0  0  0  0  0  0  0
    1.3908    2.1637   -0.7679 H   0  0  0  0  0  0  0  0  0  0  0  0
    1.5996    1.9093    1.0081 H   0  0  0  0  0  0  0  0  0  0  0  0
    0.8058   -0.5634   -1.5962 H   0  0  0  0  0  0  0  0  0  0  0  0
   -0.3220    0.7607   -1.9474 H   0  0  0  0  0  0  0  0  0  0  0  0
    0.4569   -0.0754    2.1270 H   0  0  0  0  0  0  0  0  0  0  0  0
    1.2624   -1.0743    0.8946 H   0  0  0  0  0  0  0  0  0  0  0  0
   -0.6696    2.0330    1.4440 H   0  0  0  0  0  0  0  0  0  0  0  0
   -1.8131    0.9156    0.6696 H   0  0  0  0  0  0  0  0  0  0  0  0
   -1.3382   -1.4632   -2.2194 H   0  0  0  0  0  0  0  0  0  0  0  0
   -2.1307   -0.4577   -1.0083 H   0  0  0  0  0  0  0  0  0  0  0  0
   -1.6578   -1.0240    1.5261 H   0  0  0  0  0  0  0  0  0  0  0  0
   -0.5110   -2.3310    1.8260 H   0  0  0  0  0  0  0  0  0  0  0  0
   -0.5198    3.1023   -0.5795 H   0  0  0  0  0  0  0  0  0  0  0  0
   -0.2249   -2.7112   -0.4973 H   0  0  0  0  0  0  0  0  0  0  0  0
   -1.9577   -2.6670   -0.1541 H   0  0  0  0  0  0  0  0  0  0  0  0
  1  2  2  0  0  0  0
  2  3  1  0  0  0  0
  2  4  1  0  0  0  0
  4  5  1  0  0  0  0
  4 13  1  0  0  0  0
  4 14  1  0  0  0  0
  5  6  1  0  0  0  0
  5  7  1  0  0  0  0
  5  8  1  0  0  0  0
  6  9  1  0  0  0  0
  6 15  1  0  0  0  0
  6 16  1  0  0  0  0
  7 10  1  0  0  0  0
  7 17  1  0  0  0  0
  7 18  1  0  0  0  0
  8 11  1  0  0  0  0
  8 19  1  0  0  0  0
  8 20  1  0  0  0  0
  9 12  1  0  0  0  0
  9 21  1  0  0  0  0
  9 22  1  0  0  0  0
 10 12  1  0  0  0  0
 10 23  1  0  0  0  0
 10 24  1  0  0  0  0
 11 25  1  0  0  0  0
 12 26  1  0  0  0  0
 12 27  1  0  0  0  0
M  CHG  1   3  -1
M  END
>  <Column 1>
O=C([O-])CC1(CO)CCCCC1 ZINC000000001530

>  <Column 2>
Decoy106

>  <MMFF94 Energy>
17.035

$$$$
Decoy107
 OpenBabel07082414533D

 28 28  0  0  0  0  0  0  0  0999 V2000
    0.0904   -2.8969    0.1809 O   0  0  0  0  0  0  0  0  0  0  0  0
    0.8540   -2.1311   -0.3811 C   0  0  0  0  0  0  0  0  0  0  0  0
    0.8634   -0.7856   -0.3082 O   0  0  0  0  0  0  0  0  0  0  0  0
    1.8519   -2.5457   -1.1925 N   0  0  0  0  0  0  0  0  0  0  0  0
   -0.0978   -0.0784    0.5285 C   0  0  0  0  0  0  0  0  0  0  0  0
    0.2484    1.4257    0.3727 C   0  0  0  0  0  0  0  0  0  0  0  0
   -1.5425   -0.2993    0.0162 C   0  0  0  0  0  0  0  0  0  0  0  0
    0.0092   -0.4991    2.0191 C   0  0  0  0  0  0  0  0  0  0  0  0
    0.0425    1.9356   -1.0564 C   0  0  0  0  0  0  0  0  0  0  0  0
   -1.7411    0.1922   -1.4177 C   0  0  0  0  0  0  0  0  0  0  0  0
    1.3694   -0.3544    2.5733 C   0  0  0  0  0  0  0  0  0  0  0  0
   -1.3708    1.6639   -1.5567 C   0  0  0  0  0  0  0  0  0  0  0  0
    2.4737   -0.2424    3.0318 C   0  0  0  0  0  0  0  0  0  0  0  0
    1.9862   -3.5072   -1.3558 H   0  0  0  0  0  0  0  0  0  0  0  0
    2.4446   -1.8862   -1.6204 H   0  0  0  0  0  0  0  0  0  0  0  0
    1.2734    1.5707    0.6433 H   0  0  0  0  0  0  0  0  0  0  0  0
   -0.4114    1.9765    1.0101 H   0  0  0  0  0  0  0  0  0  0  0  0
   -2.2174    0.2298    0.6561 H   0  0  0  0  0  0  0  0  0  0  0  0
   -1.7317   -1.3524    0.0262 H   0  0  0  0  0  0  0  0  0  0  0  0
   -0.2842   -1.5246    2.1039 H   0  0  0  0  0  0  0  0  0  0  0  0
   -0.6301    0.1522    2.5776 H   0  0  0  0  0  0  0  0  0  0  0  0
    0.7391    1.4442   -1.7031 H   0  0  0  0  0  0  0  0  0  0  0  0
    0.1975    2.9943   -1.0570 H   0  0  0  0  0  0  0  0  0  0  0  0
   -2.7677    0.0641   -1.6907 H   0  0  0  0  0  0  0  0  0  0  0  0
   -1.1036   -0.3779   -2.0607 H   0  0  0  0  0  0  0  0  0  0  0  0
   -1.4337    1.9420   -2.5880 H   0  0  0  0  0  0  0  0  0  0  0  0
   -2.0521    2.2381   -0.9642 H   0  0  0  0  0  0  0  0  0  0  0  0
    3.3877   -0.1497    3.4113 H   0  0  0  0  0  0  0  0  0  0  0  0
  1  2  2  0  0  0  0
  2  3  1  0  0  0  0
  2  4  1  0  0  0  0
  3  5  1  0  0  0  0
  4 14  1  0  0  0  0
  4 15  1  0  0  0  0
  5  6  1  0  0  0  0
  5  7  1  0  0  0  0
  5  8  1  0  0  0  0
  6  9  1  0  0  0  0
  6 16  1  0  0  0  0
  6 17  1  0  0  0  0
  7 10  1  0  0  0  0
  7 18  1  0  0  0  0
  7 19  1  0  0  0  0
  8 11  1  0  0  0  0
  8 20  1  0  0  0  0
  8 21  1  0  0  0  0
  9 12  1  0  0  0  0
  9 22  1  0  0  0  0
  9 23  1  0  0  0  0
 10 12  1  0  0  0  0
 10 24  1  0  0  0  0
 10 25  1  0  0  0  0
 11 13  3  0  0  0  0
 12 26  1  0  0  0  0
 12 27  1  0  0  0  0
 13 28  1  0  0  0  0
M  END
>  <Column 1>
C#CCC1(OC(N)=O)CCCCC1 ZINC000000001531

>  <Column 2>
Decoy107

>  <MMFF94 Energy>
-52.157

$$$$
Decoy108
 OpenBabel07082414533D

 30 31  0  0  0  0  0  0  0  0999 V2000
   -2.5501    2.0033   -1.4567 N   0  0  0  0  0  0  0  0  0  0  0  0
   -1.5186    2.9015   -1.5656 N   0  0  0  0  0  0  0  0  0  0  0  0
   -2.0762    0.8856   -0.9423 C   0  0  0  0  0  0  0  0  0  0  0  0
   -0.4359    2.3162   -1.1156 C   0  0  0  0  0  0  0  0  0  0  0  0
   -0.7317    1.0478   -0.7082 N   0  0  0  0  0  0  0  0  0  0  0  0
   -2.8715   -0.3419   -0.6679 C   0  0  0  0  0  0  0  0  0  0  0  0
    0.2067    0.0899   -0.1443 C   0  0  0  0  0  0  0  0  0  0  0  0
   -3.3172   -0.4118    0.7838 C   0  0  0  0  0  0  0  0  0  0  0  0
    1.2896   -0.3129   -1.1574 C   0  0  0  0  0  0  0  0  0  0  0  0
    0.8290    0.5974    1.1667 C   0  0  0  0  0  0  0  0  0  0  0  0
    2.2627   -1.3273   -0.5603 C   0  0  0  0  0  0  0  0  0  0  0  0
    1.8028   -0.4227    1.7528 C   0  0  0  0  0  0  0  0  0  0  0  0
    2.8751   -0.8218    0.7429 C   0  0  0  0  0  0  0  0  0  0  0  0
    0.4999    2.7494   -1.0754 H   0  0  0  0  0  0  0  0  0  0  0  0
   -2.2714   -1.2000   -0.8878 H   0  0  0  0  0  0  0  0  0  0  0  0
   -3.7460   -0.3167   -1.2839 H   0  0  0  0  0  0  0  0  0  0  0  0
   -0.3555   -0.7896    0.0908 H   0  0  0  0  0  0  0  0  0  0  0  0
   -2.4573   -0.4380    1.4200 H   0  0  0  0  0  0  0  0  0  0  0  0
   -3.9003   -1.2960    0.9357 H   0  0  0  0  0  0  0  0  0  0  0  0
   -3.9077    0.4494    1.0175 H   0  0  0  0  0  0  0  0  0  0  0  0
    1.8338    0.5604   -1.4507 H   0  0  0  0  0  0  0  0  0  0  0  0
    0.8100   -0.7632   -2.0013 H   0  0  0  0  0  0  0  0  0  0  0  0
    0.0480    0.7800    1.8750 H   0  0  0  0  0  0  0  0  0  0  0  0
    1.3693    1.4968    0.9570 H   0  0  0  0  0  0  0  0  0  0  0  0
    3.0475   -1.5109   -1.2641 H   0  0  0  0  0  0  0  0  0  0  0  0
    1.7205   -2.2250   -0.3481 H   0  0  0  0  0  0  0  0  0  0  0  0
    1.2573   -1.2962    2.0432 H   0  0  0  0  0  0  0  0  0  0  0  0
    2.2873    0.0238    2.5959 H   0  0  0  0  0  0  0  0  0  0  0  0
    3.4864    0.0305    0.5311 H   0  0  0  0  0  0  0  0  0  0  0  0
    3.4555   -1.6138    1.1680 H   0  0  0  0  0  0  0  0  0  0  0  0
  1  2  1  0  0  0  0
  1  3  2  0  0  0  0
  2  4  2  0  0  0  0
  3  5  1  0  0  0  0
  3  6  1  0  0  0  0
  4  5  1  0  0  0  0
  4 14  1  0  0  0  0
  5  7  1  0  0  0  0
  6  8  1  0  0  0  0
  6 15  1  0  0  0  0
  6 16  1  0  0  0  0
  7  9  1  0  0  0  0
  7 10  1  0  0  0  0
  7 17  1  0  0  0  0
  8 18  1  0  0  0  0
  8 19  1  0  0  0  0
  8 20  1  0  0  0  0
  9 11  1  0  0  0  0
  9 21  1  0  0  0  0
  9 22  1  0  0  0  0
 10 12  1  0  0  0  0
 10 23  1  0  0  0  0
 10 24  1  0  0  0  0
 11 13  1  0  0  0  0
 11 25  1  0  0  0  0
 11 26  1  0  0  0  0
 12 13  1  0  0  0  0
 12 27  1  0  0  0  0
 12 28  1  0  0  0  0
 13 29  1  0  0  0  0
 13 30  1  0  0  0  0
M  END
>  <Column 1>
CCc1nncn1C1CCCCC1 ZINC000000001532

>  <Column 2>
Decoy108

>  <MMFF94 Energy>
-5.3091

$$$$
Decoy109
 OpenBabel07082414533D

 29 29  0  0  0  0  0  0  0  0999 V2000
    3.9480   -3.1396    1.5241 O   0  0  0  0  0  0  0  0  0  0  0  0
    4.1315   -2.1511    0.7544 C   0  0  0  0  0  0  0  0  0  0  0  0
    5.0558   -1.2860    0.7691 O   0  5  0  0  0  0  0  0  0  0  0  0
    3.1318   -2.0213   -0.3940 C   0  0  0  0  0  0  0  0  0  0  0  0
    1.9473   -1.1633   -0.0261 C   0  0  0  0  0  0  0  0  0  0  0  0
    0.8106   -1.7326    0.5574 C   0  0  0  0  0  0  0  0  0  0  0  0
    1.9774    0.2191   -0.2376 C   0  0  0  0  0  0  0  0  0  0  0  0
   -0.2874   -0.9386    0.8976 C   0  0  0  0  0  0  0  0  0  0  0  0
    0.8801    1.0143    0.1021 C   0  0  0  0  0  0  0  0  0  0  0  0
   -0.2678    0.4430    0.6664 C   0  0  0  0  0  0  0  0  0  0  0  0
   -1.4494    1.3023    1.0418 C   0  0  0  0  0  0  0  0  0  0  0  0
   -2.5235    1.5004   -0.0480 C   0  0  0  0  0  0  0  0  0  0  0  0
   -3.2079    0.1943   -0.4528 C   0  0  0  0  0  0  0  0  0  0  0  0
   -1.9911    2.2298   -1.2819 C   0  0  0  0  0  0  0  0  0  0  0  0
    2.7813   -2.9974   -0.6574 H   0  0  0  0  0  0  0  0  0  0  0  0
    3.6340   -1.5525   -1.2143 H   0  0  0  0  0  0  0  0  0  0  0  0
    0.7828   -2.7483    0.7382 H   0  0  0  0  0  0  0  0  0  0  0  0
    2.8176    0.6555   -0.6482 H   0  0  0  0  0  0  0  0  0  0  0  0
   -1.1207   -1.3739    1.3232 H   0  0  0  0  0  0  0  0  0  0  0  0
    0.9155    2.0322   -0.0642 H   0  0  0  0  0  0  0  0  0  0  0  0
   -1.0772    2.2683    1.3123 H   0  0  0  0  0  0  0  0  0  0  0  0
   -1.9412    0.7804    1.8359 H   0  0  0  0  0  0  0  0  0  0  0  0
   -3.2632    2.1270    0.4049 H   0  0  0  0  0  0  0  0  0  0  0  0
   -2.4923   -0.4564   -0.9104 H   0  0  0  0  0  0  0  0  0  0  0  0
   -3.9945    0.4041   -1.1472 H   0  0  0  0  0  0  0  0  0  0  0  0
   -3.6159   -0.2787    0.4159 H   0  0  0  0  0  0  0  0  0  0  0  0
   -1.2468    1.6271   -1.7590 H   0  0  0  0  0  0  0  0  0  0  0  0
   -1.5587    3.1627   -0.9858 H   0  0  0  0  0  0  0  0  0  0  0  0
   -2.7953    2.4101   -1.9643 H   0  0  0  0  0  0  0  0  0  0  0  0
  1  2  2  0  0  0  0
  2  3  1  0  0  0  0
  2  4  1  0  0  0  0
  4  5  1  0  0  0  0
  4 15  1  0  0  0  0
  4 16  1  0  0  0  0
  5  6  2  0  0  0  0
  5  7  1  0  0  0  0
  6  8  1  0  0  0  0
  6 17  1  0  0  0  0
  7  9  2  0  0  0  0
  7 18  1  0  0  0  0
  8 10  2  0  0  0  0
  8 19  1  0  0  0  0
  9 10  1  0  0  0  0
  9 20  1  0  0  0  0
 10 11  1  0  0  0  0
 11 12  1  0  0  0  0
 11 21  1  0  0  0  0
 11 22  1  0  0  0  0
 12 13  1  0  0  0  0
 12 14  1  0  0  0  0
 12 23  1  0  0  0  0
 13 24  1  0  0  0  0
 13 25  1  0  0  0  0
 13 26  1  0  0  0  0
 14 27  1  0  0  0  0
 14 28  1  0  0  0  0
 14 29  1  0  0  0  0
M  CHG  1   3  -1
M  END
>  <Column 1>
CC(C)Cc1ccc(CC(=O)[O-])cc1 ZINC000000001549

>  <Column 2>
Decoy109

>  <MMFF94 Energy>
54.306

$$$$
Decoy110
 OpenBabel07082414533D

 30 32  0  0  0  0  0  0  0  0999 V2000
   -0.6156   -0.0000   -2.7283 N   0  3  0  0  0  0  0  0  0  0  0  0
   -1.2942   -0.5227   -1.6661 C   0  0  0  0  0  0  0  0  0  0  0  0
   -1.3046   -0.3643   -3.9678 C   0  0  0  0  0  0  0  0  0  0  0  0
   -2.3912   -1.2434   -2.0494 N   0  0  0  0  0  0  0  0  0  0  0  0
   -0.9452   -0.4133   -0.3783 N   0  0  0  0  0  0  0  0  0  0  0  0
   -2.5030   -1.2073   -3.5096 C   0  0  0  0  0  0  0  0  0  0  0  0
   -0.0187    0.5197    0.1500 C   0  0  0  0  0  0  0  0  0  0  0  0
    0.6320    0.3312    1.3736 C   0  0  0  0  0  0  0  0  0  0  0  0
    0.3000    1.7701   -0.4213 C   0  0  0  0  0  0  0  0  0  0  0  0
    1.5620    1.2455    1.9923 C   0  0  0  0  0  0  0  0  0  0  0  0
    0.5382   -0.7564    2.2044 C   0  0  0  0  0  0  0  0  0  0  0  0
    1.2173    2.6989    0.1657 C   0  0  0  0  0  0  0  0  0  0  0  0
    1.9959    0.7201    3.1460 N   0  0  0  0  0  0  0  0  0  0  0  0
    1.8877    2.4687    1.3857 C   0  0  0  0  0  0  0  0  0  0  0  0
    1.3712   -0.4671    3.2521 N   0  0  0  0  0  0  0  0  0  0  0  0
    1.6312   -1.2942    4.4083 C   0  0  0  0  0  0  0  0  0  0  0  0
    0.2073    0.5373   -2.6704 H   0  0  0  0  0  0  0  0  0  0  0  0
   -0.6614   -0.9360   -4.6038 H   0  0  0  0  0  0  0  0  0  0  0  0
   -1.6036    0.4932   -4.5336 H   0  0  0  0  0  0  0  0  0  0  0  0
   -3.0075   -1.7118   -1.4411 H   0  0  0  0  0  0  0  0  0  0  0  0
   -1.3690   -1.0349    0.2567 H   0  0  0  0  0  0  0  0  0  0  0  0
   -2.4482   -2.1950   -3.9174 H   0  0  0  0  0  0  0  0  0  0  0  0
   -3.4362   -0.7977   -3.8356 H   0  0  0  0  0  0  0  0  0  0  0  0
   -0.1533    2.0291   -1.3115 H   0  0  0  0  0  0  0  0  0  0  0  0
   -0.0336   -1.6049    2.0696 H   0  0  0  0  0  0  0  0  0  0  0  0
    1.3982    3.5855   -0.3306 H   0  0  0  0  0  0  0  0  0  0  0  0
    2.5570    3.1391    1.7951 H   0  0  0  0  0  0  0  0  0  0  0  0
    1.0595   -2.1959    4.3376 H   0  0  0  0  0  0  0  0  0  0  0  0
    1.3535   -0.7645    5.2955 H   0  0  0  0  0  0  0  0  0  0  0  0
    2.6731   -1.5346    4.4478 H   0  0  0  0  0  0  0  0  0  0  0  0
  1  2  2  0  0  0  0
  1  3  1  0  0  0  0
  1 17  1  0  0  0  0
  2  4  1  0  0  0  0
  2  5  1  0  0  0  0
  3  6  1  0  0  0  0
  3 18  1  0  0  0  0
  3 19  1  0  0  0  0
  4  6  1  0  0  0  0
  4 20  1  0  0  0  0
  5  7  1  0  0  0  0
  5 21  1  0  0  0  0
  6 22  1  0  0  0  0
  6 23  1  0  0  0  0
  7  8  1  0  0  0  0
  7  9  2  0  0  0  0
  8 10  1  0  0  0  0
  8 11  2  0  0  0  0
  9 12  1  0  0  0  0
  9 24  1  0  0  0  0
 10 13  2  0  0  0  0
 10 14  1  0  0  0  0
 11 15  1  0  0  0  0
 11 25  1  0  0  0  0
 12 14  2  0  0  0  0
 12 26  1  0  0  0  0
 13 15  1  0  0  0  0
 14 27  1  0  0  0  0
 15 16  1  0  0  0  0
 16 28  1  0  0  0  0
 16 29  1  0  0  0  0
 16 30  1  0  0  0  0
M  CHG  1   1   1
M  END
>  <Column 1>
Cn1cc2c(NC3=[NH+]CCN3)cccc2n1 ZINC000000001564

>  <Column 2>
Decoy110

>  <MMFF94 Energy>
-80.906

$$$$
Decoy111
 OpenBabel07082414533D

 35 38  0  0  0  0  0  0  0  0999 V2000
   -5.2872    1.6722   -3.3463 Cl  0  0  0  0  0  0  0  0  0  0  0  0
   -4.2056    0.9254   -2.2356 C   0  0  0  0  0  0  0  0  0  0  0  0
   -4.6868    0.4611   -1.0118 C   0  0  0  0  0  0  0  0  0  0  0  0
   -2.8599    0.7776   -2.5665 C   0  0  0  0  0  0  0  0  0  0  0  0
   -3.8126   -0.1481   -0.1078 C   0  0  0  0  0  0  0  0  0  0  0  0
   -1.9840    0.1608   -1.6672 C   0  0  0  0  0  0  0  0  0  0  0  0
   -2.4535   -0.2845   -0.4242 C   0  0  0  0  0  0  0  0  0  0  0  0
   -1.5623   -0.9627    0.5577 C   0  0  0  0  0  0  0  0  0  0  0  0
   -2.0400   -1.9065    1.1889 O   0  0  0  0  0  0  0  0  0  0  0  0
   -0.2191   -0.5935    0.8166 N   0  0  0  0  0  0  0  0  0  0  0  0
    0.7444   -1.3268    1.5174 C   0  0  0  0  0  0  0  0  0  0  0  0
    0.3684    0.5906    0.4254 C   0  0  0  0  0  0  0  0  0  0  0  0
    1.9646   -0.6454    1.4013 C   0  0  0  0  0  0  0  0  0  0  0  0
    0.6603   -2.5557    2.2014 C   0  0  0  0  0  0  0  0  0  0  0  0
    1.7263    0.5521    0.6660 C   0  0  0  0  0  0  0  0  0  0  0  0
    3.1212   -1.2144    1.9776 C   0  0  0  0  0  0  0  0  0  0  0  0
    1.8190   -3.0894    2.7728 C   0  0  0  0  0  0  0  0  0  0  0  0
    2.7318    1.5943    0.2471 C   0  0  0  0  0  0  0  0  0  0  0  0
    3.0363   -2.4302    2.6615 C   0  0  0  0  0  0  0  0  0  0  0  0
    2.4915    2.1457   -1.1139 C   0  0  0  0  0  0  0  0  0  0  0  0
    2.9001    1.5367   -2.2486 N   0  0  0  0  0  0  0  0  0  0  0  0
    1.8062    3.2896   -1.3382 N   0  5  0  0  0  0  0  0  0  0  0  0
    2.4110    2.3270   -3.2347 N   0  0  0  0  0  0  0  0  0  0  0  0
    1.7541    3.3768   -2.6889 N   0  0  0  0  0  0  0  0  0  0  0  0
   -5.6855    0.5671   -0.7745 H   0  0  0  0  0  0  0  0  0  0  0  0
   -2.5101    1.1228   -3.4740 H   0  0  0  0  0  0  0  0  0  0  0  0
   -4.1683   -0.4986    0.7953 H   0  0  0  0  0  0  0  0  0  0  0  0
   -0.9914    0.0336   -1.9192 H   0  0  0  0  0  0  0  0  0  0  0  0
   -0.1352    1.3909    0.0119 H   0  0  0  0  0  0  0  0  0  0  0  0
   -0.2407   -3.0529    2.2792 H   0  0  0  0  0  0  0  0  0  0  0  0
    4.0298   -0.7322    1.8938 H   0  0  0  0  0  0  0  0  0  0  0  0
    1.7693   -3.9846    3.2838 H   0  0  0  0  0  0  0  0  0  0  0  0
    3.7053    1.1505    0.2645 H   0  0  0  0  0  0  0  0  0  0  0  0
    2.6417    2.4092    0.9346 H   0  0  0  0  0  0  0  0  0  0  0  0
    3.8828   -2.8404    3.0861 H   0  0  0  0  0  0  0  0  0  0  0  0
  1  2  1  0  0  0  0
  2  3  2  0  0  0  0
  2  4  1  0  0  0  0
  3  5  1  0  0  0  0
  3 25  1  0  0  0  0
  4  6  2  0  0  0  0
  4 26  1  0  0  0  0
  5  7  2  0  0  0  0
  5 27  1  0  0  0  0
  6  7  1  0  0  0  0
  6 28  1  0  0  0  0
  7  8  1  0  0  0  0
  8  9  2  0  0  0  0
  8 10  1  0  0  0  0
 10 11  1  0  0  0  0
 10 12  1  0  0  0  0
 11 13  2  0  0  0  0
 11 14  1  0  0  0  0
 12 15  2  0  0  0  0
 12 29  1  0  0  0  0
 13 16  1  0  0  0  0
 13 15  1  0  0  0  0
 14 17  2  0  0  0  0
 14 30  1  0  0  0  0
 15 18  1  0  0  0  0
 16 19  2  0  0  0  0
 16 31  1  0  0  0  0
 17 19  1  0  0  0  0
 17 32  1  0  0  0  0
 18 20  1  0  0  0  0
 18 33  1  0  0  0  0
 18 34  1  0  0  0  0
 19 35  1  0  0  0  0
 20 21  2  0  0  0  0
 20 22  1  0  0  0  0
 21 23  1  0  0  0  0
 22 24  1  0  0  0  0
 23 24  2  0  0  0  0
M  CHG  1  22  -1
M  END
>  <Column 1>
O=C(c1ccc(Cl)cc1)n1cc(Cc2nnn[n-]2)c2ccccc21 ZINC000000001573

>  <Column 2>
Decoy111

>  <MMFF94 Energy>
103.23

$$$$
Decoy112
 OpenBabel07082414533D

 43 44  0  0  0  0  0  0  0  0999 V2000
   -2.1414   -3.9126    1.0238 Cl  0  0  0  0  0  0  0  0  0  0  0  0
   -1.5105   -2.3323    0.7113 C   0  0  0  0  0  0  0  0  0  0  0  0
   -2.2086   -1.3934    1.3732 N   0  0  0  0  0  0  0  0  0  0  0  0
   -0.4098   -2.1013   -0.0990 C   0  0  0  0  0  0  0  0  0  0  0  0
   -1.7886   -0.1442    1.2268 C   0  0  0  0  0  0  0  0  0  0  0  0
    0.4983   -3.4403   -0.8755 S   0  0  0  0  0  0  0  0  0  0  0  0
   -0.0684   -0.7501   -0.2103 C   0  0  0  0  0  0  0  0  0  0  0  0
   -0.7412    0.2019    0.4744 N   0  0  0  0  0  0  0  0  0  0  0  0
   -2.4344    0.8983    1.8642 N   0  0  0  0  0  0  0  0  0  0  0  0
    2.0503   -3.3097    0.0509 C   0  0  0  0  0  0  0  0  0  0  0  0
    1.0011   -0.3239   -1.0227 N   0  0  0  0  0  0  0  0  0  0  0  0
   -3.0822    0.6198    3.1384 C   0  0  0  0  0  0  0  0  0  0  0  0
    1.5551    1.0011   -0.6720 C   0  0  0  0  0  0  0  0  0  0  0  0
    0.7725   -0.5235   -2.4766 C   0  0  0  0  0  0  0  0  0  0  0  0
   -2.0464    0.4541    4.2505 C   0  0  0  0  0  0  0  0  0  0  0  0
   -4.0147    1.7883    3.4611 C   0  0  0  0  0  0  0  0  0  0  0  0
    2.6692    1.3717   -1.6753 C   0  0  0  0  0  0  0  0  0  0  0  0
    0.9252    0.7873   -3.2861 C   0  0  0  0  0  0  0  0  0  0  0  0
    2.1819    1.5340   -3.0649 N   0  3  0  0  0  0  0  0  0  0  0  0
    3.2173    1.1540   -4.0217 C   0  0  0  0  0  0  0  0  0  0  0  0
   -2.4558    1.8000    1.4696 H   0  0  0  0  0  0  0  0  0  0  0  0
    2.7342   -4.0580   -0.2916 H   0  0  0  0  0  0  0  0  0  0  0  0
    1.8567   -3.4538    1.0933 H   0  0  0  0  0  0  0  0  0  0  0  0
    2.4765   -2.3402   -0.1020 H   0  0  0  0  0  0  0  0  0  0  0  0
   -3.6352   -0.2937    3.0699 H   0  0  0  0  0  0  0  0  0  0  0  0
    1.9618    0.9678    0.3171 H   0  0  0  0  0  0  0  0  0  0  0  0
    0.7783    1.7359   -0.7122 H   0  0  0  0  0  0  0  0  0  0  0  0
   -0.2182   -0.9016   -2.6195 H   0  0  0  0  0  0  0  0  0  0  0  0
    1.5112   -1.2121   -2.8304 H   0  0  0  0  0  0  0  0  0  0  0  0
   -1.4757    1.3544    4.3434 H   0  0  0  0  0  0  0  0  0  0  0  0
   -1.3933   -0.3591    4.0114 H   0  0  0  0  0  0  0  0  0  0  0  0
   -2.5452    0.2510    5.1751 H   0  0  0  0  0  0  0  0  0  0  0  0
   -3.4452    2.6918    3.5256 H   0  0  0  0  0  0  0  0  0  0  0  0
   -4.5032    1.6072    4.3957 H   0  0  0  0  0  0  0  0  0  0  0  0
   -4.7481    1.8834    2.6878 H   0  0  0  0  0  0  0  0  0  0  0  0
    3.4073    0.5971   -1.6634 H   0  0  0  0  0  0  0  0  0  0  0  0
    3.0678    2.3162   -1.3688 H   0  0  0  0  0  0  0  0  0  0  0  0
    0.1104    1.4307   -3.0270 H   0  0  0  0  0  0  0  0  0  0  0  0
    0.9365    0.4951   -4.3154 H   0  0  0  0  0  0  0  0  0  0  0  0
    1.9699    2.5204   -3.2149 H   0  0  0  0  0  0  0  0  0  0  0  0
    3.4630    0.1210   -3.8898 H   0  0  0  0  0  0  0  0  0  0  0  0
    4.0898    1.7517   -3.8592 H   0  0  0  0  0  0  0  0  0  0  0  0
    2.8579    1.3108   -5.0172 H   0  0  0  0  0  0  0  0  0  0  0  0
  1  2  1  0  0  0  0
  2  3  2  0  0  0  0
  2  4  1  0  0  0  0
  3  5  1  0  0  0  0
  4  6  1  0  0  0  0
  4  7  2  0  0  0  0
  5  8  2  0  0  0  0
  5  9  1  0  0  0  0
  6 10  1  0  0  0  0
  7 11  1  0  0  0  0
  7  8  1  0  0  0  0
  9 12  1  0  0  0  0
  9 21  1  0  0  0  0
 10 22  1  0  0  0  0
 10 23  1  0  0  0  0
 10 24  1  0  0  0  0
 11 13  1  0  0  0  0
 11 14  1  0  0  0  0
 12 15  1  0  0  0  0
 12 16  1  0  0  0  0
 12 25  1  0  0  0  0
 13 17  1  0  0  0  0
 13 26  1  0  0  0  0
 13 27  1  0  0  0  0
 14 18  1  0  0  0  0
 14 28  1  0  0  0  0
 14 29  1  0  0  0  0
 15 30  1  0  0  0  0
 15 31  1  0  0  0  0
 15 32  1  0  0  0  0
 16 33  1  0  0  0  0
 16 34  1  0  0  0  0
 16 35  1  0  0  0  0
 17 19  1  0  0  0  0
 17 36  1  0  0  0  0
 17 37  1  0  0  0  0
 18 19  1  0  0  0  0
 18 38  1  0  0  0  0
 18 39  1  0  0  0  0
 19 20  1  0  0  0  0
 19 40  1  0  0  0  0
 20 41  1  0  0  0  0
 20 42  1  0  0  0  0
 20 43  1  0  0  0  0
M  CHG  1  19   1
M  END
>  <Column 1>
CSc1c(Cl)nc(NC(C)C)nc1N1CCN(C)CC1 ZINC000000001582

>  <Column 2>
Decoy112

>  <MMFF94 Energy>
-4.0544

$$$$
Decoy113
 OpenBabel07082414533D

 34 36  0  0  0  0  0  0  0  0999 V2000
    2.0921    0.8713   -3.0520 F   0  0  0  0  0  0  0  0  0  0  0  0
    1.2949    0.3828   -2.0906 C   0  0  0  0  0  0  0  0  0  0  0  0
    0.7635    1.2072   -1.1025 C   0  0  0  0  0  0  0  0  0  0  0  0
    1.0273   -0.9763   -2.0801 C   0  0  0  0  0  0  0  0  0  0  0  0
    1.0379    2.5933   -1.1065 N   0  0  0  0  0  0  0  0  0  0  0  0
   -0.0514    0.6652   -0.0927 C   0  0  0  0  0  0  0  0  0  0  0  0
    0.2158   -1.5186   -1.0717 C   0  0  0  0  0  0  0  0  0  0  0  0
    1.0579    3.4209   -2.2097 C   0  0  0  0  0  0  0  0  0  0  0  0
    1.3026    3.3682    0.0058 C   0  0  0  0  0  0  0  0  0  0  0  0
   -0.3458   -0.7101   -0.0529 C   0  0  0  0  0  0  0  0  0  0  0  0
   -0.0312   -2.9872   -1.0850 C   0  0  0  0  0  0  0  0  0  0  0  0
    1.3339    4.7067   -1.7981 C   0  0  0  0  0  0  0  0  0  0  0  0
    1.4895    4.6734   -0.3952 C   0  0  0  0  0  0  0  0  0  0  0  0
   -1.1655   -1.2999    0.9343 N   0  0  0  0  0  0  0  0  0  0  0  0
    0.5278   -3.6822   -1.9265 O   0  0  0  0  0  0  0  0  0  0  0  0
   -0.9161   -3.5162   -0.0400 C   0  0  0  0  0  0  0  0  0  0  0  0
   -1.3960   -2.6672    0.8753 C   0  0  0  0  0  0  0  0  0  0  0  0
   -1.7182   -0.5063    2.0404 C   0  0  0  0  0  0  0  0  0  0  0  0
   -1.3164   -4.9707    0.0451 C   0  0  0  0  0  0  0  0  0  0  0  0
   -0.7006   -0.3420    3.1607 C   0  0  0  0  0  0  0  0  0  0  0  0
   -2.0575   -5.3928   -0.8875 O   0  0  0  0  0  0  0  0  0  0  0  0
   -0.9514   -5.5658    1.1035 O   0  5  0  0  0  0  0  0  0  0  0  0
    1.4232   -1.5878   -2.8111 H   0  0  0  0  0  0  0  0  0  0  0  0
   -0.4407    1.2877    0.6326 H   0  0  0  0  0  0  0  0  0  0  0  0
    0.8930    3.1253   -3.1846 H   0  0  0  0  0  0  0  0  0  0  0  0
    1.3523    3.0258    0.9781 H   0  0  0  0  0  0  0  0  0  0  0  0
    1.4123    5.5392   -2.4029 H   0  0  0  0  0  0  0  0  0  0  0  0
    1.7034    5.4769    0.2161 H   0  0  0  0  0  0  0  0  0  0  0  0
   -1.9978   -3.0690    1.6112 H   0  0  0  0  0  0  0  0  0  0  0  0
   -2.5852   -1.0009    2.4259 H   0  0  0  0  0  0  0  0  0  0  0  0
   -1.9724    0.4640    1.6679 H   0  0  0  0  0  0  0  0  0  0  0  0
   -0.4350   -1.3045    3.5452 H   0  0  0  0  0  0  0  0  0  0  0  0
   -1.1252    0.2503    3.9442 H   0  0  0  0  0  0  0  0  0  0  0  0
    0.1736    0.1437    2.7801 H   0  0  0  0  0  0  0  0  0  0  0  0
  1  2  1  0  0  0  0
  2  3  2  0  0  0  0
  2  4  1  0  0  0  0
  3  5  1  0  0  0  0
  3  6  1  0  0  0  0
  4  7  2  0  0  0  0
  4 23  1  0  0  0  0
  5  8  1  0  0  0  0
  5  9  1  0  0  0  0
  6 10  2  0  0  0  0
  6 24  1  0  0  0  0
  7 11  1  0  0  0  0
  7 10  1  0  0  0  0
  8 12  2  0  0  0  0
  8 25  1  0  0  0  0
  9 13  2  0  0  0  0
  9 26  1  0  0  0  0
 10 14  1  0  0  0  0
 11 15  2  0  0  0  0
 11 16  1  0  0  0  0
 12 13  1  0  0  0  0
 12 27  1  0  0  0  0
 13 28  1  0  0  0  0
 14 17  1  0  0  0  0
 14 18  1  0  0  0  0
 16 19  1  0  0  0  0
 16 17  2  0  0  0  0
 17 29  1  0  0  0  0
 18 20  1  0  0  0  0
 18 30  1  0  0  0  0
 18 31  1  0  0  0  0
 19 21  2  0  0  0  0
 19 22  1  0  0  0  0
 20 32  1  0  0  0  0
 20 33  1  0  0  0  0
 20 34  1  0  0  0  0
M  CHG  1  22  -1
M  END
>  <Column 1>
CCn1cc(C(=O)[O-])c(=O)c2cc(F)c(-n3cccc3)cc21 ZINC000000001584

>  <Column 2>
Decoy113

>  <MMFF94 Energy>
46.087

$$$$
Decoy114
 OpenBabel07082414533D

 25 27  0  0  0  0  0  0  0  0999 V2000
    2.2388    0.8607    0.4303 O   0  0  0  0  0  0  0  0  0  0  0  0
    1.9083   -0.3157   -0.1816 C   0  0  0  0  0  0  0  0  0  0  0  0
    2.6880    1.6976   -0.5407 C   0  0  0  0  0  0  0  0  0  0  0  0
    2.1421   -0.2235   -1.5379 C   0  0  0  0  0  0  0  0  0  0  0  0
    1.3720   -1.3918    0.6972 C   0  0  0  0  0  0  0  0  0  0  0  0
    2.6462    1.0789   -1.7677 C   0  0  0  0  0  0  0  0  0  0  0  0
    0.0849   -1.9486    0.3346 N   0  0  0  0  0  0  0  0  0  0  0  0
   -1.0521   -1.2019    0.1161 C   0  0  0  0  0  0  0  0  0  0  0  0
   -1.9951   -1.7893   -0.6517 N   0  0  0  0  0  0  0  0  0  0  0  0
   -1.3574    0.0609    0.5996 C   0  0  0  0  0  0  0  0  0  0  0  0
   -3.1523   -1.1370   -0.8883 C   0  0  0  0  0  0  0  0  0  0  0  0
   -0.7170    0.9944    1.3689 N   0  0  0  0  0  0  0  0  0  0  0  0
   -2.5741    0.6536    0.3004 C   0  0  0  0  0  0  0  0  0  0  0  0
   -3.5198    0.0722   -0.4563 N   0  0  0  0  0  0  0  0  0  0  0  0
   -1.5440    2.0751    1.5000 C   0  0  0  0  0  0  0  0  0  0  0  0
   -2.6810    1.8957    0.8686 N   0  0  0  0  0  0  0  0  0  0  0  0
    3.0150    2.6631   -0.3798 H   0  0  0  0  0  0  0  0  0  0  0  0
    1.9814   -0.9582   -2.2446 H   0  0  0  0  0  0  0  0  0  0  0  0
    1.2844   -0.9898    1.6849 H   0  0  0  0  0  0  0  0  0  0  0  0
    2.0647   -2.2019    0.6033 H   0  0  0  0  0  0  0  0  0  0  0  0
    2.9264    1.4833   -2.6749 H   0  0  0  0  0  0  0  0  0  0  0  0
    0.0181   -2.9261    0.2378 H   0  0  0  0  0  0  0  0  0  0  0  0
   -3.8391   -1.6345   -1.4764 H   0  0  0  0  0  0  0  0  0  0  0  0
    0.1821    0.9035    1.7596 H   0  0  0  0  0  0  0  0  0  0  0  0
   -1.3040    2.9273    2.0302 H   0  0  0  0  0  0  0  0  0  0  0  0
  1  2  1  0  0  0  0
  1  3  1  0  0  0  0
  2  4  2  0  0  0  0
  2  5  1  0  0  0  0
  3  6  2  0  0  0  0
  3 17  1  0  0  0  0
  4  6  1  0  0  0  0
  4 18  1  0  0  0  0
  5  7  1  0  0  0  0
  5 19  1  0  0  0  0
  5 20  1  0  0  0  0
  6 21  1  0  0  0  0
  7  8  1  0  0  0  0
  7 22  1  0  0  0  0
  8  9  2  0  0  0  0
  8 10  1  0  0  0  0
  9 11  1  0  0  0  0
 10 12  1  0  0  0  0
 10 13  2  0  0  0  0
 11 14  2  0  0  0  0
 11 23  1  0  0  0  0
 12 15  1  0  0  0  0
 12 24  1  0  0  0  0
 13 16  1  0  0  0  0
 13 14  1  0  0  0  0
 15 16  2  0  0  0  0
 15 25  1  0  0  0  0
M  END
>  <Column 1>
c1coc(CNc2ncnc3nc[nH]c23)c1 ZINC000000001601

>  <Column 2>
Decoy114

>  <MMFF94 Energy>
-73.233

$$$$
Decoy115
 OpenBabel07082414533D

 48 50  0  0  1  0  0  0  0  0999 V2000
   -0.7492    0.7492    2.6236 S   0  0  0  0  0  0  0  0  0  0  0  0
   -1.0835   -0.7369    1.6983 C   0  0  0  0  0  0  0  0  0  0  0  0
    0.9497    1.0595    2.1799 C   0  0  0  0  0  0  0  0  0  0  0  0
   -0.3062   -1.1234    0.5849 C   0  0  0  0  0  0  0  0  0  0  0  0
   -2.1914   -1.4968    2.1036 C   0  0  0  0  0  0  0  0  0  0  0  0
    1.5341    0.5169    1.0142 C   0  0  0  0  0  0  0  0  0  0  0  0
    1.6782    1.9148    3.0219 C   0  0  0  0  0  0  0  0  0  0  0  0
    0.7724   -0.3084    0.1374 N   0  0  0  0  0  0  0  0  0  0  0  0
   -0.6475   -2.3397   -0.0382 C   0  0  0  0  0  0  0  0  0  0  0  0
   -2.5277   -2.6723    1.4371 C   0  0  0  0  0  0  0  0  0  0  0  0
    2.8844    0.8334    0.7689 C   0  0  0  0  0  0  0  0  0  0  0  0
    3.0048    2.2236    2.7401 C   0  0  0  0  0  0  0  0  0  0  0  0
    1.2237   -0.4389   -1.2707 C   0  0  0  0  0  0  0  0  0  0  0  0
   -1.7441   -3.1115    0.3757 C   0  0  0  0  0  0  0  0  0  0  0  0
    3.6096    1.6770    1.6173 C   0  0  0  0  0  0  0  0  0  0  0  0
    1.1354    0.9000   -2.0486 C   0  0  2  0  0  0  0  0  0  0  0  0
   -2.1257   -4.6049   -0.5207 S   0  0  0  0  0  0  0  0  0  0  0  0
   -0.3172    1.3744   -2.2371 C   0  0  0  0  0  0  0  0  0  0  0  0
    1.7779    0.7098   -3.4290 C   0  0  0  0  0  0  0  0  0  0  0  0
   -2.1627   -5.8040    0.8417 C   0  0  0  0  0  0  0  0  0  0  0  0
   -0.9248    1.8883   -0.9543 N   0  3  0  0  0  0  0  0  0  0  0  0
   -0.4843    3.2761   -0.5848 C   0  0  0  0  0  0  0  0  0  0  0  0
   -2.4221    1.7666   -0.9412 C   0  0  0  0  0  0  0  0  0  0  0  0
   -2.7624   -1.1815    2.9033 H   0  0  0  0  0  0  0  0  0  0  0  0
    1.2255    2.3179    3.8571 H   0  0  0  0  0  0  0  0  0  0  0  0
   -0.0714   -2.6748   -0.8261 H   0  0  0  0  0  0  0  0  0  0  0  0
   -3.3551   -3.2153    1.7297 H   0  0  0  0  0  0  0  0  0  0  0  0
    3.3516    0.4321   -0.0592 H   0  0  0  0  0  0  0  0  0  0  0  0
    3.5351    2.8544    3.3613 H   0  0  0  0  0  0  0  0  0  0  0  0
    0.6084   -1.1629   -1.7627 H   0  0  0  0  0  0  0  0  0  0  0  0
    2.2504   -0.7400   -1.2567 H   0  0  0  0  0  0  0  0  0  0  0  0
    4.5966    1.8932    1.4075 H   0  0  0  0  0  0  0  0  0  0  0  0
    1.6487    1.6452   -1.4775 H   0  0  0  0  0  0  0  0  0  0  0  0
   -0.9042    0.5525   -2.5904 H   0  0  0  0  0  0  0  0  0  0  0  0
   -0.3088    2.1806   -2.9405 H   0  0  0  0  0  0  0  0  0  0  0  0
    1.2414   -0.0401   -3.9719 H   0  0  0  0  0  0  0  0  0  0  0  0
    2.7961    0.4036   -3.3093 H   0  0  0  0  0  0  0  0  0  0  0  0
    1.7442    1.6333   -3.9684 H   0  0  0  0  0  0  0  0  0  0  0  0
   -2.3857   -6.7764    0.4550 H   0  0  0  0  0  0  0  0  0  0  0  0
   -2.9154   -5.5194    1.5470 H   0  0  0  0  0  0  0  0  0  0  0  0
   -1.2089   -5.8229    1.3262 H   0  0  0  0  0  0  0  0  0  0  0  0
   -0.5572    1.2745   -0.2273 H   0  0  0  0  0  0  0  0  0  0  0  0
   -0.8425    3.9705   -1.3158 H   0  0  0  0  0  0  0  0  0  0  0  0
    0.5845    3.3138   -0.5506 H   0  0  0  0  0  0  0  0  0  0  0  0
   -0.8811    3.5325    0.3752 H   0  0  0  0  0  0  0  0  0  0  0  0
   -2.8381    2.4011   -1.6957 H   0  0  0  0  0  0  0  0  0  0  0  0
   -2.7954    2.0604    0.0175 H   0  0  0  0  0  0  0  0  0  0  0  0
   -2.6992    0.7516   -1.1361 H   0  0  0  0  0  0  0  0  0  0  0  0
  1  2  1  0  0  0  0
  1  3  1  0  0  0  0
  2  4  2  0  0  0  0
  2  5  1  0  0  0  0
  3  6  2  0  0  0  0
  3  7  1  0  0  0  0
  4  8  1  0  0  0  0
  4  9  1  0  0  0  0
  5 10  2  0  0  0  0
  5 24  1  0  0  0  0
  6 11  1  0  0  0  0
  6  8  1  0  0  0  0
  7 12  2  0  0  0  0
  7 25  1  0  0  0  0
  8 13  1  0  0  0  0
  9 14  2  0  0  0  0
  9 26  1  0  0  0  0
 10 14  1  0  0  0  0
 10 27  1  0  0  0  0
 11 15  2  0  0  0  0
 11 28  1  0  0  0  0
 12 15  1  0  0  0  0
 12 29  1  0  0  0  0
 13 16  1  0  0  0  0
 13 30  1  0  0  0  0
 13 31  1  0  0  0  0
 14 17  1  0  0  0  0
 15 32  1  0  0  0  0
 16 18  1  0  0  0  0
 16 19  1  0  0  0  0
 16 33  1  1  0  0  0
 17 20  1  0  0  0  0
 18 21  1  0  0  0  0
 18 34  1  0  0  0  0
 18 35  1  0  0  0  0
 19 36  1  0  0  0  0
 19 37  1  0  0  0  0
 19 38  1  0  0  0  0
 20 39  1  0  0  0  0
 20 40  1  0  0  0  0
 20 41  1  0  0  0  0
 21 22  1  0  0  0  0
 21 23  1  0  0  0  0
 21 42  1  0  0  0  0
 22 43  1  0  0  0  0
 22 44  1  0  0  0  0
 22 45  1  0  0  0  0
 23 46  1  0  0  0  0
 23 47  1  0  0  0  0
 23 48  1  0  0  0  0
M  CHG  1  21   1
M  END
>  <Column 1>
CSc1ccc2c(c1)N(C[C@@H](C)C[NH+](C)C)c1ccccc1S2 ZINC000000001615

>  <Column 2>
Decoy115

>  <MMFF94 Energy>
61.51

$$$$
Decoy116
 OpenBabel07082414533D

 30 31  0  0  0  0  0  0  0  0999 V2000
    0.1776    3.6449    3.1999 O   0  0  0  0  0  0  0  0  0  0  0  0
    0.0747    2.4424    2.9636 C   0  0  0  0  0  0  0  0  0  0  0  0
    0.0672    1.9718    1.5573 C   0  0  0  0  0  0  0  0  0  0  0  0
   -0.1185    1.4273    4.0672 C   0  0  0  0  0  0  0  0  0  0  0  0
   -0.0620    0.6646    1.2712 C   0  0  0  0  0  0  0  0  0  0  0  0
    0.4274    0.0665    3.6648 C   0  0  0  0  0  0  0  0  0  0  0  0
   -0.1099    0.2129   -0.1362 C   0  0  0  0  0  0  0  0  0  0  0  0
   -0.1688   -0.3983    2.3378 C   0  0  0  0  0  0  0  0  0  0  0  0
    0.8352    0.6603   -1.0709 C   0  0  0  0  0  0  0  0  0  0  0  0
   -1.0783   -0.7095   -0.5550 C   0  0  0  0  0  0  0  0  0  0  0  0
    0.8054    0.2045   -2.3926 C   0  0  0  0  0  0  0  0  0  0  0  0
   -1.1090   -1.1623   -1.8769 C   0  0  0  0  0  0  0  0  0  0  0  0
   -0.1732   -0.7031   -2.8092 C   0  0  0  0  0  0  0  0  0  0  0  0
   -0.2034   -1.2061   -4.2310 C   0  0  0  0  0  0  0  0  0  0  0  0
    0.4440   -2.5849   -4.3629 C   0  0  0  0  0  0  0  0  0  0  0  0
    1.6722   -2.5799   -4.6683 O   0  0  0  0  0  0  0  0  0  0  0  0
   -0.3365   -3.5678   -4.1941 O   0  5  0  0  0  0  0  0  0  0  0  0
    0.1622    2.6552    0.7899 H   0  0  0  0  0  0  0  0  0  0  0  0
   -1.1635    1.3356    4.2780 H   0  0  0  0  0  0  0  0  0  0  0  0
    0.4132    1.7630    4.9330 H   0  0  0  0  0  0  0  0  0  0  0  0
    0.1839   -0.6458    4.4252 H   0  0  0  0  0  0  0  0  0  0  0  0
    1.4880    0.1480    3.5493 H   0  0  0  0  0  0  0  0  0  0  0  0
    0.3552   -1.2717    2.0099 H   0  0  0  0  0  0  0  0  0  0  0  0
   -1.2062   -0.6080    2.4951 H   0  0  0  0  0  0  0  0  0  0  0  0
    1.5611    1.3337   -0.7799 H   0  0  0  0  0  0  0  0  0  0  0  0
   -1.7765   -1.0583    0.1202 H   0  0  0  0  0  0  0  0  0  0  0  0
    1.5115    0.5408   -3.0660 H   0  0  0  0  0  0  0  0  0  0  0  0
   -1.8291   -1.8420   -2.1678 H   0  0  0  0  0  0  0  0  0  0  0  0
    0.3253   -0.5149   -4.8536 H   0  0  0  0  0  0  0  0  0  0  0  0
   -1.2271   -1.2909   -4.5306 H   0  0  0  0  0  0  0  0  0  0  0  0
  1  2  2  0  0  0  0
  2  3  1  0  0  0  0
  2  4  1  0  0  0  0
  3  5  2  0  0  0  0
  3 18  1  0  0  0  0
  4  6  1  0  0  0  0
  4 19  1  0  0  0  0
  4 20  1  0  0  0  0
  5  7  1  0  0  0  0
  5  8  1  0  0  0  0
  6  8  1  0  0  0  0
  6 21  1  0  0  0  0
  6 22  1  0  0  0  0
  7  9  2  0  0  0  0
  7 10  1  0  0  0  0
  8 23  1  0  0  0  0
  8 24  1  0  0  0  0
  9 11  1  0  0  0  0
  9 25  1  0  0  0  0
 10 12  2  0  0  0  0
 10 26  1  0  0  0  0
 11 13  2  0  0  0  0
 11 27  1  0  0  0  0
 12 13  1  0  0  0  0
 12 28  1  0  0  0  0
 13 14  1  0  0  0  0
 14 15  1  0  0  0  0
 14 29  1  0  0  0  0
 14 30  1  0  0  0  0
 15 16  2  0  0  0  0
 15 17  1  0  0  0  0
M  CHG  1  17  -1
M  END
>  <Column 1>
O=C([O-])Cc1ccc(C2=CC(=O)CCC2)cc1 ZINC000000001617

>  <Column 2>
Decoy116

>  <MMFF94 Energy>
52.599

$$$$
Decoy117
 OpenBabel07082414533D

 36 37  0  0  0  0  0  0  0  0999 V2000
    1.4195    3.1958    3.1958 Cl  0  0  0  0  0  0  0  0  0  0  0  0
    1.5456    1.8666    2.1161 C   0  0  0  0  0  0  0  0  0  0  0  0
    2.6996    1.1945    2.2038 N   0  0  0  0  0  0  0  0  0  0  0  0
    0.5263    1.5685    1.2590 C   0  0  0  0  0  0  0  0  0  0  0  0
    2.8563    0.1603    1.3728 C   0  0  0  0  0  0  0  0  0  0  0  0
    0.7524    0.4830    0.4547 C   0  0  0  0  0  0  0  0  0  0  0  0
    1.9062   -0.2038    0.4931 N   0  0  0  0  0  0  0  0  0  0  0  0
    4.0341   -0.5859    1.4378 N   0  0  0  0  0  0  0  0  0  0  0  0
   -0.1897    0.0672   -0.4993 N   0  0  0  0  0  0  0  0  0  0  0  0
    5.1488    0.0960    2.0775 C   0  0  0  0  0  0  0  0  0  0  0  0
    4.3346   -1.3501    0.2380 C   0  0  0  0  0  0  0  0  0  0  0  0
   -1.5948   -0.0449   -0.3565 C   0  0  0  0  0  0  0  0  0  0  0  0
   -2.4180   -0.0126   -1.5085 C   0  0  0  0  0  0  0  0  0  0  0  0
   -2.1795   -0.2854    0.8961 C   0  0  0  0  0  0  0  0  0  0  0  0
   -3.8118   -0.2264   -1.3795 C   0  0  0  0  0  0  0  0  0  0  0  0
   -1.8029    0.2040   -2.8707 C   0  0  0  0  0  0  0  0  0  0  0  0
   -3.5549   -0.4623    1.0227 C   0  0  0  0  0  0  0  0  0  0  0  0
   -4.3651   -0.4304   -0.1070 C   0  0  0  0  0  0  0  0  0  0  0  0
   -4.7309   -0.2203   -2.5719 C   0  0  0  0  0  0  0  0  0  0  0  0
   -0.3465    2.1179    1.2199 H   0  0  0  0  0  0  0  0  0  0  0  0
    0.1726   -0.1781   -1.3812 H   0  0  0  0  0  0  0  0  0  0  0  0
    4.7981    0.6184    2.9429 H   0  0  0  0  0  0  0  0  0  0  0  0
    5.5817    0.7933    1.3910 H   0  0  0  0  0  0  0  0  0  0  0  0
    5.8864   -0.6222    2.3690 H   0  0  0  0  0  0  0  0  0  0  0  0
    3.4371   -1.7995   -0.1328 H   0  0  0  0  0  0  0  0  0  0  0  0
    5.0463   -2.1144    0.4709 H   0  0  0  0  0  0  0  0  0  0  0  0
    4.7416   -0.6988   -0.5071 H   0  0  0  0  0  0  0  0  0  0  0  0
   -1.5815   -0.3319    1.7359 H   0  0  0  0  0  0  0  0  0  0  0  0
   -0.7476    0.3470   -2.7669 H   0  0  0  0  0  0  0  0  0  0  0  0
   -2.2373    1.0702   -3.3245 H   0  0  0  0  0  0  0  0  0  0  0  0
   -1.9881   -0.6517   -3.4858 H   0  0  0  0  0  0  0  0  0  0  0  0
   -3.9724   -0.6169    1.9537 H   0  0  0  0  0  0  0  0  0  0  0  0
   -5.3844   -0.5582   -0.0080 H   0  0  0  0  0  0  0  0  0  0  0  0
   -4.1600   -0.0540   -3.4614 H   0  0  0  0  0  0  0  0  0  0  0  0
   -5.4539    0.5606   -2.4609 H   0  0  0  0  0  0  0  0  0  0  0  0
   -5.2320   -1.1632   -2.6408 H   0  0  0  0  0  0  0  0  0  0  0  0
  1  2  1  0  0  0  0
  2  3  2  0  0  0  0
  2  4  1  0  0  0  0
  3  5  1  0  0  0  0
  4  6  2  0  0  0  0
  4 20  1  0  0  0  0
  5  7  2  0  0  0  0
  5  8  1  0  0  0  0
  6  9  1  0  0  0  0
  6  7  1  0  0  0  0
  8 10  1  0  0  0  0
  8 11  1  0  0  0  0
  9 12  1  0  0  0  0
  9 21  1  0  0  0  0
 10 22  1  0  0  0  0
 10 23  1  0  0  0  0
 10 24  1  0  0  0  0
 11 25  1  0  0  0  0
 11 26  1  0  0  0  0
 11 27  1  0  0  0  0
 12 13  2  0  0  0  0
 12 14  1  0  0  0  0
 13 15  1  0  0  0  0
 13 16  1  0  0  0  0
 14 17  2  0  0  0  0
 14 28  1  0  0  0  0
 15 18  2  0  0  0  0
 15 19  1  0  0  0  0
 16 29  1  0  0  0  0
 16 30  1  0  0  0  0
 16 31  1  0  0  0  0
 17 18  1  0  0  0  0
 17 32  1  0  0  0  0
 18 33  1  0  0  0  0
 19 34  1  0  0  0  0
 19 35  1  0  0  0  0
 19 36  1  0  0  0  0
M  END
>  <Column 1>
Cc1cccc(Nc2cc(Cl)nc(N(C)C)n2)c1C ZINC000000001626

>  <Column 2>
Decoy117

>  <MMFF94 Energy>
-107.2

$$$$
Decoy118
 OpenBabel07082414533D

 41 41  0  0  1  0  0  0  0  0999 V2000
   -0.5637   -4.4214    2.4443 O   0  0  0  0  0  0  0  0  0  0  0  0
   -0.5424   -3.2328    2.8761 C   0  0  0  0  0  0  0  0  0  0  0  0
    0.1565   -2.7491    3.8126 O   0  5  0  0  0  0  0  0  0  0  0  0
   -1.5241   -2.2403    2.1797 C   0  0  1  0  0  0  0  0  0  0  0  0
   -1.0427   -0.7803    2.2414 C   0  0  0  0  0  0  0  0  0  0  0  0
   -1.8221   -2.6211    0.7192 C   0  0  0  0  0  0  0  0  0  0  0  0
   -2.8006   -2.3970    3.0231 C   0  0  0  0  0  0  0  0  0  0  0  0
    0.1531   -0.5156    1.3235 C   0  0  0  0  0  0  0  0  0  0  0  0
   -0.6268   -2.3709   -0.2013 C   0  0  0  0  0  0  0  0  0  0  0  0
   -0.1390   -0.9138   -0.1303 C   0  0  2  0  0  0  0  0  0  0  0  0
    1.0871   -0.7359   -1.0481 C   0  0  0  0  0  0  0  0  0  0  0  0
    1.6902    0.6738   -1.1085 C   0  0  0  0  0  0  0  0  0  0  0  0
    0.7121    1.7365   -1.6191 C   0  0  0  0  0  0  0  0  0  0  0  0
    1.3223    3.1502   -1.6845 C   0  0  0  0  0  0  0  0  0  0  0  0
    2.4622    3.2514   -2.6991 C   0  0  0  0  0  0  0  0  0  0  0  0
    0.2331    4.1686   -2.0326 C   0  0  0  0  0  0  0  0  0  0  0  0
   -0.7583   -0.5555    3.2481 H   0  0  0  0  0  0  0  0  0  0  0  0
   -1.8487   -0.1590    1.9109 H   0  0  0  0  0  0  0  0  0  0  0  0
   -2.6503   -2.0383    0.3738 H   0  0  0  0  0  0  0  0  0  0  0  0
   -2.0425   -3.6678    0.6923 H   0  0  0  0  0  0  0  0  0  0  0  0
   -2.5920   -2.1319    4.0385 H   0  0  0  0  0  0  0  0  0  0  0  0
   -3.1335   -3.4130    2.9809 H   0  0  0  0  0  0  0  0  0  0  0  0
   -3.5645   -1.7551    2.6366 H   0  0  0  0  0  0  0  0  0  0  0  0
    0.9905   -1.0813    1.6751 H   0  0  0  0  0  0  0  0  0  0  0  0
    0.3595    0.5341    1.3437 H   0  0  0  0  0  0  0  0  0  0  0  0
   -0.9146   -2.5900   -1.2083 H   0  0  0  0  0  0  0  0  0  0  0  0
    0.1746   -3.0034    0.1189 H   0  0  0  0  0  0  0  0  0  0  0  0
   -0.9067   -0.2562   -0.4811 H   0  0  0  0  0  0  0  0  0  0  0  0
    0.7941   -1.0083   -2.0405 H   0  0  0  0  0  0  0  0  0  0  0  0
    1.8512   -1.3561   -0.6281 H   0  0  0  0  0  0  0  0  0  0  0  0
    2.5375    0.6518   -1.7616 H   0  0  0  0  0  0  0  0  0  0  0  0
    1.9554    0.9454   -0.1081 H   0  0  0  0  0  0  0  0  0  0  0  0
   -0.1332    1.7621   -0.9636 H   0  0  0  0  0  0  0  0  0  0  0  0
    0.4420    1.4629   -2.6176 H   0  0  0  0  0  0  0  0  0  0  0  0
    1.7339    3.3618   -0.7198 H   0  0  0  0  0  0  0  0  0  0  0  0
    2.0864    3.0451   -3.6795 H   0  0  0  0  0  0  0  0  0  0  0  0
    3.2235    2.5412   -2.4522 H   0  0  0  0  0  0  0  0  0  0  0  0
    2.8742    4.2386   -2.6754 H   0  0  0  0  0  0  0  0  0  0  0  0
   -0.1688    3.9448   -2.9987 H   0  0  0  0  0  0  0  0  0  0  0  0
    0.6540    5.1523   -2.0406 H   0  0  0  0  0  0  0  0  0  0  0  0
   -0.5470    4.1203   -1.3018 H   0  0  0  0  0  0  0  0  0  0  0  0
  1  2  2  0  0  0  0
  2  3  1  0  0  0  0
  4  2  1  1  0  0  0
  4  5  1  0  0  0  0
  4  6  1  0  0  0  0
  4  7  1  0  0  0  0
  5  8  1  0  0  0  0
  5 17  1  0  0  0  0
  5 18  1  0  0  0  0
  6  9  1  0  0  0  0
  6 19  1  0  0  0  0
  6 20  1  0  0  0  0
  7 21  1  0  0  0  0
  7 22  1  0  0  0  0
  7 23  1  0  0  0  0
  8 10  1  0  0  0  0
  8 24  1  0  0  0  0
  8 25  1  0  0  0  0
  9 10  1  0  0  0  0
  9 26  1  0  0  0  0
  9 27  1  0  0  0  0
 10 11  1  0  0  0  0
 10 28  1  6  0  0  0
 11 12  1  0  0  0  0
 11 29  1  0  0  0  0
 11 30  1  0  0  0  0
 12 13  1  0  0  0  0
 12 31  1  0  0  0  0
 12 32  1  0  0  0  0
 13 14  1  0  0  0  0
 13 33  1  0  0  0  0
 13 34  1  0  0  0  0
 14 15  1  0  0  0  0
 14 16  1  0  0  0  0
 14 35  1  0  0  0  0
 15 36  1  0  0  0  0
 15 37  1  0  0  0  0
 15 38  1  0  0  0  0
 16 39  1  0  0  0  0
 16 40  1  0  0  0  0
 16 41  1  0  0  0  0
M  CHG  1   3  -1
M  END
>  <Column 1>
CC(C)CCCC1CCC(C)(C(=O)[O-])CC1 ZINC000000001638

>  <Column 2>
Decoy118

>  <MMFF94 Energy>
29.348

$$$$
Decoy119
 OpenBabel07082414533D

 27 27  0  0  0  0  0  0  0  0999 V2000
   -0.3558    0.8006   -4.4534 S   0  0  0  0  0  0  0  0  0  0  0  0
    0.9349    1.2241   -4.9441 O   0  0  0  0  0  0  0  0  0  0  0  0
   -1.5799    1.4709   -4.8285 O   0  0  0  0  0  0  0  0  0  0  0  0
   -0.5406   -0.7912   -4.9518 N   0  0  0  0  0  0  0  0  0  0  0  0
   -0.2922    0.6292   -2.6966 C   0  0  0  0  0  0  0  0  0  0  0  0
   -1.4431    0.8355   -1.9344 C   0  0  0  0  0  0  0  0  0  0  0  0
    0.9214    0.3240   -2.0783 C   0  0  0  0  0  0  0  0  0  0  0  0
   -1.3789    0.7070   -0.5440 C   0  0  0  0  0  0  0  0  0  0  0  0
    0.9759    0.1957   -0.6867 C   0  0  0  0  0  0  0  0  0  0  0  0
   -0.1734    0.3734    0.0885 C   0  0  0  0  0  0  0  0  0  0  0  0
   -0.1867    0.2671    1.4921 N   0  0  0  0  0  0  0  0  0  0  0  0
    0.7594   -0.3563    2.2865 C   0  0  0  0  0  0  0  0  0  0  0  0
    1.7794   -0.9139    1.9025 O   0  0  0  0  0  0  0  0  0  0  0  0
    0.3764   -0.2928    3.7218 C   0  0  0  0  0  0  0  0  0  0  0  0
    1.0711   -0.9255    4.6778 C   0  0  0  0  0  0  0  0  0  0  0  0
    0.6273   -0.8377    6.1322 C   0  0  0  0  0  0  0  0  0  0  0  0
   -0.4232   -0.1707    6.3516 O   0  0  0  0  0  0  0  0  0  0  0  0
    1.3748   -1.4562    6.9388 O   0  5  0  0  0  0  0  0  0  0  0  0
   -0.5910   -0.8250   -5.9700 H   0  0  0  0  0  0  0  0  0  0  0  0
   -1.3992   -1.1739   -4.5560 H   0  0  0  0  0  0  0  0  0  0  0  0
   -2.3341    1.0809   -2.3936 H   0  0  0  0  0  0  0  0  0  0  0  0
    1.7740    0.1937   -2.6450 H   0  0  0  0  0  0  0  0  0  0  0  0
   -2.2278    0.8593    0.0227 H   0  0  0  0  0  0  0  0  0  0  0  0
    1.8721   -0.0321   -0.2285 H   0  0  0  0  0  0  0  0  0  0  0  0
   -0.9496    0.6799    1.9577 H   0  0  0  0  0  0  0  0  0  0  0  0
   -0.4537    0.2579    3.9915 H   0  0  0  0  0  0  0  0  0  0  0  0
    1.9090   -1.4736    4.4277 H   0  0  0  0  0  0  0  0  0  0  0  0
  1  2  2  0  0  0  0
  1  3  2  0  0  0  0
  1  4  1  0  0  0  0
  1  5  1  0  0  0  0
  4 19  1  0  0  0  0
  4 20  1  0  0  0  0
  5  6  2  0  0  0  0
  5  7  1  0  0  0  0
  6  8  1  0  0  0  0
  6 21  1  0  0  0  0
  7  9  2  0  0  0  0
  7 22  1  0  0  0  0
  8 10  2  0  0  0  0
  8 23  1  0  0  0  0
  9 10  1  0  0  0  0
  9 24  1  0  0  0  0
 10 11  1  0  0  0  0
 11 12  1  0  0  0  0
 11 25  1  0  0  0  0
 12 13  2  0  0  0  0
 12 14  1  0  0  0  0
 14 15  2  0  0  0  0
 14 26  1  0  0  0  0
 15 16  1  0  0  0  0
 15 27  1  0  0  0  0
 16 17  2  0  0  0  0
 16 18  1  0  0  0  0
M  CHG  1  18  -1
M  END
>  <Column 1>
NS(=O)(=O)c1ccc(NC(=O)/C=C/C(=O)[O-])cc1 ZINC000000001646

>  <Column 2>
Decoy119

>  <MMFF94 Energy>
-98.731

$$$$
Decoy120
 OpenBabel07082414533D

 28 29  0  0  0  0  0  0  0  0999 V2000
   -2.4518    1.9261   -2.2766 O   0  0  0  0  0  0  0  0  0  0  0  0
   -1.8628    1.3438   -1.3712 C   0  0  0  0  0  0  0  0  0  0  0  0
   -0.3986    1.1509   -1.4095 C   0  0  0  0  0  0  0  0  0  0  0  0
   -2.5939    0.8619   -0.1759 C   0  0  0  0  0  0  0  0  0  0  0  0
    0.2560    0.3745   -0.4451 C   0  0  0  0  0  0  0  0  0  0  0  0
    0.3266    1.8166   -2.4138 C   0  0  0  0  0  0  0  0  0  0  0  0
   -1.9678    0.0989    0.7254 C   0  0  0  0  0  0  0  0  0  0  0  0
   -4.0336    1.2504   -0.0617 C   0  0  0  0  0  0  0  0  0  0  0  0
   -0.5573   -0.3467    0.5801 C   0  0  0  0  0  0  0  0  0  0  0  0
    1.6584    0.3491   -0.4655 C   0  0  0  0  0  0  0  0  0  0  0  0
    1.7160    1.7402   -2.4436 C   0  0  0  0  0  0  0  0  0  0  0  0
   -0.2224   -1.3292    1.3709 N   0  0  0  0  0  0  0  0  0  0  0  0
    2.3807    1.0164   -1.4612 C   0  0  0  0  0  0  0  0  0  0  0  0
    1.0496   -1.8409    1.1072 O   0  0  0  0  0  0  0  0  0  0  0  0
    1.5168   -2.5786    2.2428 C   0  0  0  0  0  0  0  0  0  0  0  0
    3.0182   -2.8747    2.0784 C   0  0  0  0  0  0  0  0  0  0  0  0
    3.7519   -1.8921    1.7576 O   0  0  0  0  0  0  0  0  0  0  0  0
    3.3600   -4.0715    2.3178 O   0  5  0  0  0  0  0  0  0  0  0  0
   -0.1735    2.3640   -3.1316 H   0  0  0  0  0  0  0  0  0  0  0  0
   -2.4904   -0.1959    1.5650 H   0  0  0  0  0  0  0  0  0  0  0  0
   -4.3060    1.8598   -0.8980 H   0  0  0  0  0  0  0  0  0  0  0  0
   -4.1840    1.7999    0.8440 H   0  0  0  0  0  0  0  0  0  0  0  0
   -4.6408    0.3695   -0.0495 H   0  0  0  0  0  0  0  0  0  0  0  0
    2.1665   -0.1710    0.2668 H   0  0  0  0  0  0  0  0  0  0  0  0
    2.2478    2.2168   -3.1886 H   0  0  0  0  0  0  0  0  0  0  0  0
    3.4117    0.9707   -1.4659 H   0  0  0  0  0  0  0  0  0  0  0  0
    0.9774   -3.4997    2.3165 H   0  0  0  0  0  0  0  0  0  0  0  0
    1.3615   -2.0029    3.1312 H   0  0  0  0  0  0  0  0  0  0  0  0
  1  2  2  0  0  0  0
  2  3  1  0  0  0  0
  2  4  1  0  0  0  0
  3  5  2  0  0  0  0
  3  6  1  0  0  0  0
  4  7  2  0  0  0  0
  4  8  1  0  0  0  0
  5  9  1  0  0  0  0
  5 10  1  0  0  0  0
  6 11  2  0  0  0  0
  6 19  1  0  0  0  0
  7  9  1  0  0  0  0
  7 20  1  0  0  0  0
  8 21  1  0  0  0  0
  8 22  1  0  0  0  0
  8 23  1  0  0  0  0
  9 12  2  0  0  0  0
 10 13  2  0  0  0  0
 10 24  1  0  0  0  0
 11 13  1  0  0  0  0
 11 25  1  0  0  0  0
 12 14  1  0  0  0  0
 13 26  1  0  0  0  0
 14 15  1  0  0  0  0
 15 16  1  0  0  0  0
 15 27  1  0  0  0  0
 15 28  1  0  0  0  0
 16 17  2  0  0  0  0
 16 18  1  0  0  0  0
M  CHG  1  18  -1
M  END
>  <Column 1>
CC1=C/C(=N/OCC(=O)[O-])c2ccccc2C1=O ZINC000000001678

>  <Column 2>
Decoy120

>  <MMFF94 Energy>
98.691

$$$$
Decoy121
 OpenBabel07082414533D

 27 28  0  0  0  0  0  0  0  0999 V2000
   -1.1306   -1.9138   -4.7022 O   0  0  0  0  0  0  0  0  0  0  0  0
   -0.8401   -1.4846   -3.5904 C   0  0  0  0  0  0  0  0  0  0  0  0
   -1.5128   -0.4298   -3.0018 O   0  0  0  0  0  0  0  0  0  0  0  0
    0.2589   -2.0872   -2.8214 C   0  0  0  0  0  0  0  0  0  0  0  0
   -1.1530    0.0385   -1.7220 C   0  0  0  0  0  0  0  0  0  0  0  0
    0.6279   -1.6676   -1.6025 C   0  0  0  0  0  0  0  0  0  0  0  0
   -0.1043   -0.5437   -0.9991 C   0  0  0  0  0  0  0  0  0  0  0  0
   -1.8971    1.1058   -1.2240 C   0  0  0  0  0  0  0  0  0  0  0  0
    1.7578   -2.3178   -0.8596 C   0  0  0  0  0  0  0  0  0  0  0  0
    0.1955   -0.0223    0.2705 C   0  0  0  0  0  0  0  0  0  0  0  0
   -1.5776    1.5980    0.0303 C   0  0  0  0  0  0  0  0  0  0  0  0
   -0.5384    1.0478    0.7876 C   0  0  0  0  0  0  0  0  0  0  0  0
   -2.2982    2.6482    0.5337 O   0  0  0  0  0  0  0  0  0  0  0  0
   -0.3550    1.6461    2.0021 O   0  0  0  0  0  0  0  0  0  0  0  0
    0.7200    1.1670    2.8244 C   0  0  0  0  0  0  0  0  0  0  0  0
    0.8092    1.9657    4.1429 C   0  0  0  0  0  0  0  0  0  0  0  0
    1.6968    1.5351    4.9406 O   0  0  0  0  0  0  0  0  0  0  0  0
    0.0163    2.9389    4.2862 O   0  5  0  0  0  0  0  0  0  0  0  0
    0.7742   -2.8759   -3.2427 H   0  0  0  0  0  0  0  0  0  0  0  0
   -2.6658    1.5186   -1.7751 H   0  0  0  0  0  0  0  0  0  0  0  0
    2.1654   -3.1098   -1.4524 H   0  0  0  0  0  0  0  0  0  0  0  0
    1.3948   -2.7150    0.0653 H   0  0  0  0  0  0  0  0  0  0  0  0
    2.5190   -1.5922   -0.6619 H   0  0  0  0  0  0  0  0  0  0  0  0
    0.9632   -0.4327    0.8249 H   0  0  0  0  0  0  0  0  0  0  0  0
   -2.9957    3.0214    0.0314 H   0  0  0  0  0  0  0  0  0  0  0  0
    1.6414    1.2701    2.2902 H   0  0  0  0  0  0  0  0  0  0  0  0
    0.5355    0.1399    3.0608 H   0  0  0  0  0  0  0  0  0  0  0  0
  1  2  2  0  0  0  0
  2  3  1  0  0  0  0
  2  4  1  0  0  0  0
  3  5  1  0  0  0  0
  4  6  2  0  0  0  0
  4 19  1  0  0  0  0
  5  7  2  0  0  0  0
  5  8  1  0  0  0  0
  6  9  1  0  0  0  0
  6  7  1  0  0  0  0
  7 10  1  0  0  0  0
  8 11  2  0  0  0  0
  8 20  1  0  0  0  0
  9 21  1  0  0  0  0
  9 22  1  0  0  0  0
  9 23  1  0  0  0  0
 10 12  2  0  0  0  0
 10 24  1  0  0  0  0
 11 13  1  0  0  0  0
 11 12  1  0  0  0  0
 12 14  1  0  0  0  0
 13 25  1  0  0  0  0
 14 15  1  0  0  0  0
 15 16  1  0  0  0  0
 15 26  1  0  0  0  0
 15 27  1  0  0  0  0
 16 17  2  0  0  0  0
 16 18  1  0  0  0  0
M  CHG  1  18  -1
M  END
>  <Column 1>
Cc1cc(=O)oc2cc(O)c(OCC(=O)[O-])cc12 ZINC000000001696

>  <Column 2>
Decoy121

>  <MMFF94 Energy>
76.311

$$$$
Decoy122
 OpenBabel07082414533D

 30 31  0  0  0  0  0  0  0  0999 V2000
    2.7482   -0.5682   -0.3788 S   0  0  0  0  0  0  0  0  0  0  0  0
    3.1264   -0.2455   -1.7403 O   0  0  0  0  0  0  0  0  0  0  0  0
    2.8913   -1.9093    0.1529 O   0  0  0  0  0  0  0  0  0  0  0  0
    1.0361   -0.1432   -0.2030 C   0  0  0  0  0  0  0  0  0  0  0  0
    3.6043    0.5503    0.6990 C   0  0  0  0  0  0  0  0  0  0  0  0
    0.5987    0.7324    0.7961 C   0  0  0  0  0  0  0  0  0  0  0  0
    0.1403   -0.7166   -1.1127 C   0  0  0  0  0  0  0  0  0  0  0  0
    2.8531    0.7201    2.0040 C   0  0  0  0  0  0  0  0  0  0  0  0
   -0.7745    1.0313    0.8511 C   0  0  0  0  0  0  0  0  0  0  0  0
    1.5167    1.4201    1.7756 C   0  0  0  0  0  0  0  0  0  0  0  0
   -1.2266   -0.4222   -1.0292 C   0  0  0  0  0  0  0  0  0  0  0  0
   -1.7036    0.4571   -0.0396 C   0  0  0  0  0  0  0  0  0  0  0  0
   -2.3034   -1.1695   -2.2330 S   0  0  0  0  0  0  0  0  0  0  0  0
   -3.1502    0.8470    0.0946 C   0  0  0  0  0  0  0  0  0  0  0  0
   -1.5130   -1.9058   -3.1920 O   0  0  0  0  0  0  0  0  0  0  0  0
   -3.3095   -0.2190   -2.6424 O   0  0  0  0  0  0  0  0  0  0  0  0
   -3.0923   -2.3408   -1.3238 N   0  0  0  0  0  0  0  0  0  0  0  0
    3.6925    1.5022    0.2185 H   0  0  0  0  0  0  0  0  0  0  0  0
    4.5734    0.1490    0.9105 H   0  0  0  0  0  0  0  0  0  0  0  0
    0.4867   -1.3561   -1.8448 H   0  0  0  0  0  0  0  0  0  0  0  0
    3.4453    1.3061    2.6755 H   0  0  0  0  0  0  0  0  0  0  0  0
    2.6655   -0.2481    2.4190 H   0  0  0  0  0  0  0  0  0  0  0  0
   -1.1129    1.6928    1.5672 H   0  0  0  0  0  0  0  0  0  0  0  0
    1.0106    1.4852    2.7161 H   0  0  0  0  0  0  0  0  0  0  0  0
    1.7468    2.3751    1.3514 H   0  0  0  0  0  0  0  0  0  0  0  0
   -3.2628    1.5222    0.9170 H   0  0  0  0  0  0  0  0  0  0  0  0
   -3.7409   -0.0282    0.2682 H   0  0  0  0  0  0  0  0  0  0  0  0
   -3.4760    1.3243   -0.8059 H   0  0  0  0  0  0  0  0  0  0  0  0
   -2.4181   -3.0390   -1.0102 H   0  0  0  0  0  0  0  0  0  0  0  0
   -3.8068   -2.7910   -1.8957 H   0  0  0  0  0  0  0  0  0  0  0  0
  1  2  2  0  0  0  0
  1  3  2  0  0  0  0
  1  4  1  0  0  0  0
  1  5  1  0  0  0  0
  4  6  2  0  0  0  0
  4  7  1  0  0  0  0
  5  8  1  0  0  0  0
  5 18  1  0  0  0  0
  5 19  1  0  0  0  0
  6  9  1  0  0  0  0
  6 10  1  0  0  0  0
  7 11  2  0  0  0  0
  7 20  1  0  0  0  0
  8 10  1  0  0  0  0
  8 21  1  0  0  0  0
  8 22  1  0  0  0  0
  9 12  2  0  0  0  0
  9 23  1  0  0  0  0
 10 24  1  0  0  0  0
 10 25  1  0  0  0  0
 11 13  1  0  0  0  0
 11 12  1  0  0  0  0
 12 14  1  0  0  0  0
 13 15  2  0  0  0  0
 13 16  2  0  0  0  0
 13 17  1  0  0  0  0
 14 26  1  0  0  0  0
 14 27  1  0  0  0  0
 14 28  1  0  0  0  0
 17 29  1  0  0  0  0
 17 30  1  0  0  0  0
M  END
>  <Column 1>
Cc1cc2c(cc1S(N)(=O)=O)S(=O)(=O)CCC2 ZINC000000001718

>  <Column 2>
Decoy122

>  <MMFF94 Energy>
-34.069

$$$$
Decoy123
 OpenBabel07082414533D

 18 18  0  0  0  0  0  0  0  0999 V2000
   -0.3512    2.8998    1.4931 O   0  0  0  0  0  0  0  0  0  0  0  0
   -0.1454    1.8006    0.9762 C   0  0  0  0  0  0  0  0  0  0  0  0
    0.9438    0.9354    1.1337 N   0  0  0  0  0  0  0  0  0  0  0  0
   -1.1921    1.2872    0.0394 C   0  0  0  0  0  0  0  0  0  0  0  0
    1.9725    1.3236    1.9866 O   0  5  0  0  0  0  0  0  0  0  0  0
    1.0883   -0.2922    0.5045 C   0  0  0  0  0  0  0  0  0  0  0  0
   -1.0625    0.1010   -0.5747 C   0  0  0  0  0  0  0  0  0  0  0  0
    0.1152   -0.7065   -0.3296 C   0  0  0  0  0  0  0  0  0  0  0  0
    2.3067   -1.1441    0.7484 C   0  0  0  0  0  0  0  0  0  0  0  0
   -2.0884   -0.4428   -1.5167 C   0  0  0  0  0  0  0  0  0  0  0  0
   -2.0331    1.8581   -0.1388 H   0  0  0  0  0  0  0  0  0  0  0  0
    0.2105   -1.6181   -0.8039 H   0  0  0  0  0  0  0  0  0  0  0  0
    2.9583   -0.6462    1.4357 H   0  0  0  0  0  0  0  0  0  0  0  0
    2.8200   -1.3056   -0.1765 H   0  0  0  0  0  0  0  0  0  0  0  0
    2.0072   -2.0856    1.1592 H   0  0  0  0  0  0  0  0  0  0  0  0
   -2.8973    0.2522   -1.6031 H   0  0  0  0  0  0  0  0  0  0  0  0
   -2.4574   -1.3749   -1.1428 H   0  0  0  0  0  0  0  0  0  0  0  0
   -1.6446   -0.5948   -2.4784 H   0  0  0  0  0  0  0  0  0  0  0  0
  1  2  2  0  0  0  0
  2  3  1  0  0  0  0
  2  4  1  0  0  0  0
  3  5  1  0  0  0  0
  3  6  1  0  0  0  0
  4  7  2  0  0  0  0
  4 11  1  0  0  0  0
  6  8  2  0  0  0  0
  6  9  1  0  0  0  0
  7 10  1  0  0  0  0
  7  8  1  0  0  0  0
  8 12  1  0  0  0  0
  9 13  1  0  0  0  0
  9 14  1  0  0  0  0
  9 15  1  0  0  0  0
 10 16  1  0  0  0  0
 10 17  1  0  0  0  0
 10 18  1  0  0  0  0
M  CHG  1   5  -1
M  END
>  <Column 1>
Cc1cc(C)n([O-])c(=O)c1 ZINC000000001720

>  <Column 2>
Decoy123

>  <MMFF94 Energy>
47.798

$$$$
Decoy124
 OpenBabel07082414533D

 31 33  0  0  0  0  0  0  0  0999 V2000
   -1.0038   -2.6477   -1.4602 S   0  0  0  0  0  0  0  0  0  0  0  0
    0.1907   -1.6422   -2.1687 C   0  0  0  0  0  0  0  0  0  0  0  0
   -0.7111   -2.0462    0.1069 C   0  0  0  0  0  0  0  0  0  0  0  0
    0.8261   -0.8501   -1.2097 C   0  0  0  0  0  0  0  0  0  0  0  0
    0.5349   -1.5778   -3.5329 C   0  0  0  0  0  0  0  0  0  0  0  0
    0.2838   -1.0806    0.1180 C   0  0  0  0  0  0  0  0  0  0  0  0
   -1.5023   -2.5921    1.2532 C   0  0  0  0  0  0  0  0  0  0  0  0
    1.8481    0.0295   -1.6562 C   0  0  0  0  0  0  0  0  0  0  0  0
    1.5405   -0.6999   -3.9381 C   0  0  0  0  0  0  0  0  0  0  0  0
    0.7382   -0.3407    1.3485 C   0  0  0  0  0  0  0  0  0  0  0  0
    2.1937    0.0957   -3.0098 C   0  0  0  0  0  0  0  0  0  0  0  0
   -0.0753    0.8737    1.6154 C   0  0  0  0  0  0  0  0  0  0  0  0
   -0.5823    1.6440    0.6708 N   0  3  0  0  0  0  0  0  0  0  0  0
   -0.3530    1.2910    2.8368 N   0  0  0  0  0  0  0  0  0  0  0  0
   -1.3396    2.7525    1.2664 C   0  0  0  0  0  0  0  0  0  0  0  0
   -1.1755    2.5115    2.7774 C   0  0  0  0  0  0  0  0  0  0  0  0
    0.0498   -2.1720   -4.2233 H   0  0  0  0  0  0  0  0  0  0  0  0
   -2.1907   -3.3279    0.8931 H   0  0  0  0  0  0  0  0  0  0  0  0
   -2.0431   -1.7977    1.7237 H   0  0  0  0  0  0  0  0  0  0  0  0
   -0.8390   -3.0411    1.9627 H   0  0  0  0  0  0  0  0  0  0  0  0
    2.3413    0.6265   -0.9740 H   0  0  0  0  0  0  0  0  0  0  0  0
    1.7997   -0.6424   -4.9354 H   0  0  0  0  0  0  0  0  0  0  0  0
    1.7586   -0.0477    1.2154 H   0  0  0  0  0  0  0  0  0  0  0  0
    0.6236   -0.9988    2.1843 H   0  0  0  0  0  0  0  0  0  0  0  0
    2.9384    0.7398   -3.3189 H   0  0  0  0  0  0  0  0  0  0  0  0
   -0.4688    1.4963   -0.2959 H   0  0  0  0  0  0  0  0  0  0  0  0
   -0.0543    0.8511    3.6654 H   0  0  0  0  0  0  0  0  0  0  0  0
   -2.3698    2.7120    0.9802 H   0  0  0  0  0  0  0  0  0  0  0  0
   -0.9941    3.7155    0.9531 H   0  0  0  0  0  0  0  0  0  0  0  0
   -0.6757    3.3340    3.2450 H   0  0  0  0  0  0  0  0  0  0  0  0
   -2.1094    2.4132    3.2903 H   0  0  0  0  0  0  0  0  0  0  0  0
  1  2  1  0  0  0  0
  1  3  1  0  0  0  0
  2  4  2  0  0  0  0
  2  5  1  0  0  0  0
  3  6  2  0  0  0  0
  3  7  1  0  0  0  0
  4  8  1  0  0  0  0
  4  6  1  0  0  0  0
  5  9  2  0  0  0  0
  5 17  1  0  0  0  0
  6 10  1  0  0  0  0
  7 18  1  0  0  0  0
  7 19  1  0  0  0  0
  7 20  1  0  0  0  0
  8 11  2  0  0  0  0
  8 21  1  0  0  0  0
  9 11  1  0  0  0  0
  9 22  1  0  0  0  0
 10 12  1  0  0  0  0
 10 23  1  0  0  0  0
 10 24  1  0  0  0  0
 11 25  1  0  0  0  0
 12 13  2  0  0  0  0
 12 14  1  0  0  0  0
 13 15  1  0  0  0  0
 13 26  1  0  0  0  0
 14 16  1  0  0  0  0
 14 27  1  0  0  0  0
 15 16  1  0  0  0  0
 15 28  1  0  0  0  0
 15 29  1  0  0  0  0
 16 30  1  0  0  0  0
 16 31  1  0  0  0  0
M  CHG  1  13   1
M  END
>  <Column 1>
Cc1sc2ccccc2c1CC1=[NH+]CCN1 ZINC000000001721

>  <Column 2>
Decoy124

>  <MMFF94 Energy>
67.242

$$$$
Decoy125
 OpenBabel07082414533D

 37 38  0  0  0  0  0  0  0  0999 V2000
   -3.3421   -2.7846   -1.9487 Cl  0  0  0  0  0  0  0  0  0  0  0  0
   -2.4285   -1.8402   -0.8237 C   0  0  0  0  0  0  0  0  0  0  0  0
   -3.1057   -1.6665    0.3247 N   0  0  0  0  0  0  0  0  0  0  0  0
   -1.1601   -1.3523   -1.0971 C   0  0  0  0  0  0  0  0  0  0  0  0
   -2.4799   -0.9780    1.2701 C   0  0  0  0  0  0  0  0  0  0  0  0
   -0.3141   -1.7096   -2.6385 S   0  0  0  0  0  0  0  0  0  0  0  0
   -0.6104   -0.6008   -0.0544 C   0  0  0  0  0  0  0  0  0  0  0  0
   -1.2666   -0.4421    1.1169 N   0  0  0  0  0  0  0  0  0  0  0  0
   -3.0743   -0.7698    2.5043 N   0  0  0  0  0  0  0  0  0  0  0  0
    1.0000   -2.7814   -1.9994 C   0  0  0  0  0  0  0  0  0  0  0  0
    0.6543    0.0074   -0.1693 N   0  0  0  0  0  0  0  0  0  0  0  0
   -4.5163   -0.6753    2.4828 C   0  0  0  0  0  0  0  0  0  0  0  0
    0.7197    1.1014   -1.1698 C   0  0  0  0  0  0  0  0  0  0  0  0
    1.3119    0.3173    1.1180 C   0  0  0  0  0  0  0  0  0  0  0  0
    1.2245    2.4313   -0.5597 C   0  0  0  0  0  0  0  0  0  0  0  0
    2.6532    1.0334    0.8485 C   0  0  0  0  0  0  0  0  0  0  0  0
    2.4963    2.3510    0.1891 N   0  3  0  0  0  0  0  0  0  0  0  0
    3.6483    2.6414   -0.6597 C   0  0  0  0  0  0  0  0  0  0  0  0
   -2.5523   -0.6919    3.3354 H   0  0  0  0  0  0  0  0  0  0  0  0
    1.6242   -3.1011   -2.8076 H   0  0  0  0  0  0  0  0  0  0  0  0
    0.5643   -3.6361   -1.5256 H   0  0  0  0  0  0  0  0  0  0  0  0
    1.5874   -2.2398   -1.2877 H   0  0  0  0  0  0  0  0  0  0  0  0
   -4.8662   -0.7885    1.4780 H   0  0  0  0  0  0  0  0  0  0  0  0
   -4.8168    0.2800    2.8596 H   0  0  0  0  0  0  0  0  0  0  0  0
   -4.9335   -1.4475    3.0949 H   0  0  0  0  0  0  0  0  0  0  0  0
   -0.2594    1.2579   -1.5720 H   0  0  0  0  0  0  0  0  0  0  0  0
    1.4138    0.8072   -1.9292 H   0  0  0  0  0  0  0  0  0  0  0  0
    1.4933   -0.5908    1.6541 H   0  0  0  0  0  0  0  0  0  0  0  0
    0.6776    0.9529    1.6998 H   0  0  0  0  0  0  0  0  0  0  0  0
    0.4716    2.7929    0.1090 H   0  0  0  0  0  0  0  0  0  0  0  0
    1.4151    3.0791   -1.3897 H   0  0  0  0  0  0  0  0  0  0  0  0
    3.2506    0.4081    0.2184 H   0  0  0  0  0  0  0  0  0  0  0  0
    3.1132    1.2091    1.7984 H   0  0  0  0  0  0  0  0  0  0  0  0
    2.4575    3.0678    0.9137 H   0  0  0  0  0  0  0  0  0  0  0  0
    3.7167    1.9045   -1.4325 H   0  0  0  0  0  0  0  0  0  0  0  0
    4.5403    2.6227   -0.0690 H   0  0  0  0  0  0  0  0  0  0  0  0
    3.5321    3.6098   -1.0996 H   0  0  0  0  0  0  0  0  0  0  0  0
  1  2  1  0  0  0  0
  2  3  2  0  0  0  0
  2  4  1  0  0  0  0
  3  5  1  0  0  0  0
  4  6  1  0  0  0  0
  4  7  2  0  0  0  0
  5  8  2  0  0  0  0
  5  9  1  0  0  0  0
  6 10  1  0  0  0  0
  7 11  1  0  0  0  0
  7  8  1  0  0  0  0
  9 12  1  0  0  0  0
  9 19  1  0  0  0  0
 10 20  1  0  0  0  0
 10 21  1  0  0  0  0
 10 22  1  0  0  0  0
 11 13  1  0  0  0  0
 11 14  1  0  0  0  0
 12 23  1  0  0  0  0
 12 24  1  0  0  0  0
 12 25  1  0  0  0  0
 13 15  1  0  0  0  0
 13 26  1  0  0  0  0
 13 27  1  0  0  0  0
 14 16  1  0  0  0  0
 14 28  1  0  0  0  0
 14 29  1  0  0  0  0
 15 17  1  0  0  0  0
 15 30  1  0  0  0  0
 15 31  1  0  0  0  0
 16 17  1  0  0  0  0
 16 32  1  0  0  0  0
 16 33  1  0  0  0  0
 17 18  1  0  0  0  0
 17 34  1  0  0  0  0
 18 35  1  0  0  0  0
 18 36  1  0  0  0  0
 18 37  1  0  0  0  0
M  CHG  1  17   1
M  END
>  <Column 1>
CNc1nc(Cl)c(SC)c(N2CCN(C)CC2)n1 ZINC000000001729

>  <Column 2>
Decoy125

>  <MMFF94 Energy>
-5.6457

$$$$
Decoy126
 OpenBabel07082414533D

 28 29  0  0  0  0  0  0  0  0999 V2000
   -1.8038   -0.0000   -1.2625 N   0  0  0  0  0  0  0  0  0  0  0  0
   -0.5732   -0.4767   -0.9525 C   0  0  0  0  0  0  0  0  0  0  0  0
   -2.3109   -0.3649   -2.4612 C   0  0  0  0  0  0  0  0  0  0  0  0
    0.0253   -0.1096    0.2793 N   0  0  0  0  0  0  0  0  0  0  0  0
    0.1136   -1.3167   -1.8561 C   0  0  0  0  0  0  0  0  0  0  0  0
   -1.6278   -1.1777   -3.3437 C   0  0  0  0  0  0  0  0  0  0  0  0
    0.7555    1.1577    0.1002 C   0  0  0  0  0  0  0  0  0  0  0  0
   -0.9778   -0.0304    1.3549 C   0  0  0  0  0  0  0  0  0  0  0  0
   -0.4048   -1.6706   -3.0665 N   0  0  0  0  0  0  0  0  0  0  0  0
    1.4579   -1.8886   -1.5165 C   0  0  0  0  0  0  0  0  0  0  0  0
    1.5121    1.4843    1.3892 C   0  0  0  0  0  0  0  0  0  0  0  0
   -0.2630    0.2496    2.6782 C   0  0  0  0  0  0  0  0  0  0  0  0
    0.5690    1.5282    2.5907 C   0  0  0  0  0  0  0  0  0  0  0  0
   -3.2470   -0.0219   -2.7276 H   0  0  0  0  0  0  0  0  0  0  0  0
   -2.0687   -1.4157   -4.2459 H   0  0  0  0  0  0  0  0  0  0  0  0
    0.0624    1.9432   -0.1175 H   0  0  0  0  0  0  0  0  0  0  0  0
    1.4473    1.0643   -0.7107 H   0  0  0  0  0  0  0  0  0  0  0  0
   -1.5071   -0.9579    1.4216 H   0  0  0  0  0  0  0  0  0  0  0  0
   -1.6737    0.7549    1.1451 H   0  0  0  0  0  0  0  0  0  0  0  0
    1.7588   -1.5426   -0.5497 H   0  0  0  0  0  0  0  0  0  0  0  0
    2.1741   -1.5742   -2.2467 H   0  0  0  0  0  0  0  0  0  0  0  0
    1.3999   -2.9570   -1.5108 H   0  0  0  0  0  0  0  0  0  0  0  0
    1.9860    2.4377    1.2831 H   0  0  0  0  0  0  0  0  0  0  0  0
    2.2386    0.7171    1.5580 H   0  0  0  0  0  0  0  0  0  0  0  0
    0.3819   -0.5726    2.9084 H   0  0  0  0  0  0  0  0  0  0  0  0
   -0.9997    0.3738    3.4442 H   0  0  0  0  0  0  0  0  0  0  0  0
   -0.0875    2.3671    2.4902 H   0  0  0  0  0  0  0  0  0  0  0  0
    1.1547    1.6164    3.4818 H   0  0  0  0  0  0  0  0  0  0  0  0
  1  2  2  0  0  0  0
  1  3  1  0  0  0  0
  2  4  1  0  0  0  0
  2  5  1  0  0  0  0
  3  6  2  0  0  0  0
  3 14  1  0  0  0  0
  4  7  1  0  0  0  0
  4  8  1  0  0  0  0
  5  9  2  0  0  0  0
  5 10  1  0  0  0  0
  6  9  1  0  0  0  0
  6 15  1  0  0  0  0
  7 11  1  0  0  0  0
  7 16  1  0  0  0  0
  7 17  1  0  0  0  0
  8 12  1  0  0  0  0
  8 18  1  0  0  0  0
  8 19  1  0  0  0  0
 10 20  1  0  0  0  0
 10 21  1  0  0  0  0
 10 22  1  0  0  0  0
 11 13  1  0  0  0  0
 11 23  1  0  0  0  0
 11 24  1  0  0  0  0
 12 13  1  0  0  0  0
 12 25  1  0  0  0  0
 12 26  1  0  0  0  0
 13 27  1  0  0  0  0
 13 28  1  0  0  0  0
M  END
>  <Column 1>
Cc1nccnc1N1CCCCC1 ZINC000000001742

>  <Column 2>
Decoy126

>  <MMFF94 Energy>
45.388

$$$$
Decoy127
 OpenBabel07082414533D

 32 33  0  0  0  0  0  0  0  0999 V2000
   -1.9325   -1.0119   -2.8536 S   0  0  0  0  0  0  0  0  0  0  0  0
   -0.4886   -0.1279   -2.5085 C   0  0  0  0  0  0  0  0  0  0  0  0
   -1.9254   -0.5599   -4.4921 C   0  0  0  0  0  0  0  0  0  0  0  0
   -0.0076    0.4901   -3.6628 C   0  0  0  0  0  0  0  0  0  0  0  0
    0.0995   -0.1141   -1.2035 C   0  0  0  0  0  0  0  0  0  0  0  0
   -0.8495    0.2364   -4.7966 C   0  0  0  0  0  0  0  0  0  0  0  0
    1.2294    1.3296   -3.7462 C   0  0  0  0  0  0  0  0  0  0  0  0
   -0.5913   -0.3292   -0.0724 C   0  0  0  0  0  0  0  0  0  0  0  0
    0.0465   -0.3112    1.3525 C   0  0  0  0  0  0  0  0  0  0  0  0
    1.2116   -0.9111    1.4841 N   0  3  0  0  0  0  0  0  0  0  0  0
   -0.5855    0.2586    2.3689 N   0  0  0  0  0  0  0  0  0  0  0  0
    1.9118   -0.9794    2.7637 C   0  0  0  0  0  0  0  0  0  0  0  0
    0.0123    0.2397    3.7189 C   0  0  0  0  0  0  0  0  0  0  0  0
   -1.8630    0.9815    2.2052 C   0  0  0  0  0  0  0  0  0  0  0  0
    0.8986   -0.9759    3.8838 C   0  0  0  0  0  0  0  0  0  0  0  0
   -2.6429   -0.8490   -5.1752 H   0  0  0  0  0  0  0  0  0  0  0  0
    1.1118    0.0717   -1.1277 H   0  0  0  0  0  0  0  0  0  0  0  0
   -0.6659    0.6123   -5.7400 H   0  0  0  0  0  0  0  0  0  0  0  0
    1.6927    1.3787   -2.7830 H   0  0  0  0  0  0  0  0  0  0  0  0
    0.9697    2.3165   -4.0678 H   0  0  0  0  0  0  0  0  0  0  0  0
    1.9098    0.8935   -4.4475 H   0  0  0  0  0  0  0  0  0  0  0  0
   -1.6031   -0.5174   -0.1494 H   0  0  0  0  0  0  0  0  0  0  0  0
    1.6243   -1.3275    0.6932 H   0  0  0  0  0  0  0  0  0  0  0  0
    2.5588   -0.1330    2.8635 H   0  0  0  0  0  0  0  0  0  0  0  0
    2.4942   -1.8760    2.8079 H   0  0  0  0  0  0  0  0  0  0  0  0
   -0.7682    0.2093    4.4502 H   0  0  0  0  0  0  0  0  0  0  0  0
    0.6034    1.1219    3.8502 H   0  0  0  0  0  0  0  0  0  0  0  0
   -2.1816    0.9163    1.1858 H   0  0  0  0  0  0  0  0  0  0  0  0
   -1.7281    2.0090    2.4718 H   0  0  0  0  0  0  0  0  0  0  0  0
   -2.6048    0.5429    2.8394 H   0  0  0  0  0  0  0  0  0  0  0  0
    1.4020   -0.9314    4.8269 H   0  0  0  0  0  0  0  0  0  0  0  0
    0.3097   -1.8687    3.8511 H   0  0  0  0  0  0  0  0  0  0  0  0
  1  2  1  0  0  0  0
  1  3  1  0  0  0  0
  2  4  2  0  0  0  0
  2  5  1  0  0  0  0
  3  6  2  0  0  0  0
  3 16  1  0  0  0  0
  4  7  1  0  0  0  0
  4  6  1  0  0  0  0
  5  8  2  0  0  0  0
  5 17  1  0  0  0  0
  6 18  1  0  0  0  0
  7 19  1  0  0  0  0
  7 20  1  0  0  0  0
  7 21  1  0  0  0  0
  8  9  1  0  0  0  0
  8 22  1  0  0  0  0
  9 10  2  0  0  0  0
  9 11  1  0  0  0  0
 10 12  1  0  0  0  0
 10 23  1  0  0  0  0
 11 13  1  0  0  0  0
 11 14  1  0  0  0  0
 12 15  1  0  0  0  0
 12 24  1  0  0  0  0
 12 25  1  0  0  0  0
 13 15  1  0  0  0  0
 13 26  1  0  0  0  0
 13 27  1  0  0  0  0
 14 28  1  0  0  0  0
 14 29  1  0  0  0  0
 14 30  1  0  0  0  0
 15 31  1  0  0  0  0
 15 32  1  0  0  0  0
M  CHG  1  10   1
M  END
>  <Column 1>
Cc1ccsc1/C=C/C1=[NH+]CCCN1C ZINC000000001750

>  <Column 2>
Decoy127

>  <MMFF94 Energy>
-65.273

$$$$
Decoy128
 OpenBabel07082414533D

 42 43  0  0  0  0  0  0  0  0999 V2000
   -4.4328    1.5943   -1.6829 O   0  0  0  0  0  0  0  0  0  0  0  0
   -3.9423    0.5390   -2.0282 C   0  0  0  0  0  0  0  0  0  0  0  0
   -4.3604   -0.1970   -3.1063 O   0  0  0  0  0  0  0  0  0  0  0  0
   -2.8336   -0.2030   -1.4224 C   0  0  0  0  0  0  0  0  0  0  0  0
   -3.5968   -1.4032   -3.2677 C   0  0  0  0  0  0  0  0  0  0  0  0
   -2.0597    0.1106   -0.3153 C   0  0  0  0  0  0  0  0  0  0  0  0
   -2.6266   -1.3579   -2.1557 C   0  0  0  0  0  0  0  0  0  0  0  0
   -2.3082    1.2668    0.3628 O   0  0  0  0  0  0  0  0  0  0  0  0
   -1.0467   -0.7792    0.0861 C   0  0  0  0  0  0  0  0  0  0  0  0
   -1.6304   -2.2637   -1.8082 C   0  0  0  0  0  0  0  0  0  0  0  0
   -0.8265   -1.9414   -0.6960 C   0  0  0  0  0  0  0  0  0  0  0  0
   -0.2275   -0.5172    1.3347 C   0  0  0  0  0  0  0  0  0  0  0  0
   -1.3876   -3.5118   -2.6047 C   0  0  0  0  0  0  0  0  0  0  0  0
    0.1497   -2.8386   -0.3341 O   0  0  0  0  0  0  0  0  0  0  0  0
    0.8392    0.5173    1.1085 C   0  0  0  0  0  0  0  0  0  0  0  0
    1.4154   -2.4781   -0.8959 C   0  0  0  0  0  0  0  0  0  0  0  0
    1.1005    1.6310    1.8223 C   0  0  0  0  0  0  0  0  0  0  0  0
    2.2558    2.5303    1.4035 C   0  0  0  0  0  0  0  0  0  0  0  0
    0.3512    2.0929    3.0409 C   0  0  0  0  0  0  0  0  0  0  0  0
    3.5016    2.2793    2.2414 C   0  0  0  0  0  0  0  0  0  0  0  0
    4.6172    3.0930    1.5983 C   0  0  0  0  0  0  0  0  0  0  0  0
    5.2925    2.4779    0.7256 O   0  0  0  0  0  0  0  0  0  0  0  0
    4.7280    4.2778    2.0206 O   0  5  0  0  0  0  0  0  0  0  0  0
   -3.0939   -1.4124   -4.2121 H   0  0  0  0  0  0  0  0  0  0  0  0
   -4.2051   -2.2833   -3.2502 H   0  0  0  0  0  0  0  0  0  0  0  0
   -2.9891    1.8421    0.0741 H   0  0  0  0  0  0  0  0  0  0  0  0
    0.2382   -1.4312    1.6391 H   0  0  0  0  0  0  0  0  0  0  0  0
   -0.8892   -0.1464    2.0894 H   0  0  0  0  0  0  0  0  0  0  0  0
   -2.1004   -3.5714   -3.4005 H   0  0  0  0  0  0  0  0  0  0  0  0
   -1.4905   -4.3663   -1.9690 H   0  0  0  0  0  0  0  0  0  0  0  0
   -0.3987   -3.4878   -3.0127 H   0  0  0  0  0  0  0  0  0  0  0  0
    1.4551    0.3529    0.2969 H   0  0  0  0  0  0  0  0  0  0  0  0
    2.1543   -3.1925   -0.5981 H   0  0  0  0  0  0  0  0  0  0  0  0
    1.6971   -1.5068   -0.5464 H   0  0  0  0  0  0  0  0  0  0  0  0
    1.3413   -2.4655   -1.9633 H   0  0  0  0  0  0  0  0  0  0  0  0
    1.9596    3.5517    1.5211 H   0  0  0  0  0  0  0  0  0  0  0  0
    2.4927    2.3130    0.3829 H   0  0  0  0  0  0  0  0  0  0  0  0
   -0.4373    1.4028    3.2576 H   0  0  0  0  0  0  0  0  0  0  0  0
   -0.0633    3.0623    2.8585 H   0  0  0  0  0  0  0  0  0  0  0  0
    1.0209    2.1423    3.8739 H   0  0  0  0  0  0  0  0  0  0  0  0
    3.7500    1.2386    2.2341 H   0  0  0  0  0  0  0  0  0  0  0  0
    3.3494    2.5642    3.2615 H   0  0  0  0  0  0  0  0  0  0  0  0
  1  2  2  0  0  0  0
  2  3  1  0  0  0  0
  2  4  1  0  0  0  0
  3  5  1  0  0  0  0
  4  6  2  0  0  0  0
  4  7  1  0  0  0  0
  5  7  1  0  0  0  0
  5 24  1  0  0  0  0
  5 25  1  0  0  0  0
  6  8  1  0  0  0  0
  6  9  1  0  0  0  0
  7 10  2  0  0  0  0
  8 26  1  0  0  0  0
  9 11  2  0  0  0  0
  9 12  1  0  0  0  0
 10 13  1  0  0  0  0
 10 11  1  0  0  0  0
 11 14  1  0  0  0  0
 12 15  1  0  0  0  0
 12 27  1  0  0  0  0
 12 28  1  0  0  0  0
 13 29  1  0  0  0  0
 13 30  1  0  0  0  0
 13 31  1  0  0  0  0
 14 16  1  0  0  0  0
 15 17  2  0  0  0  0
 15 32  1  0  0  0  0
 16 33  1  0  0  0  0
 16 34  1  0  0  0  0
 16 35  1  0  0  0  0
 17 18  1  0  0  0  0
 17 19  1  0  0  0  0
 18 20  1  0  0  0  0
 18 36  1  0  0  0  0
 18 37  1  0  0  0  0
 19 38  1  0  0  0  0
 19 39  1  0  0  0  0
 19 40  1  0  0  0  0
 20 21  1  0  0  0  0
 20 41  1  0  0  0  0
 20 42  1  0  0  0  0
 21 22  2  0  0  0  0
 21 23  1  0  0  0  0
M  CHG  1  23  -1
M  END
>  <Column 1>
COc1c(C)c2c(c(O)c1C/C=C(\C)CCC(=O)[O-])C(=O)OC2 ZINC000000001758

>  <Column 2>
Decoy128

>  <MMFF94 Energy>
50.578

$$$$
Decoy129
 OpenBabel07082414533D

 35 37  0  0  0  0  0  0  0  0999 V2000
    1.9353   -2.0233    3.7850 O   0  0  0  0  0  0  0  0  0  0  0  0
    0.9159   -2.3350    3.1920 C   0  0  0  0  0  0  0  0  0  0  0  0
    0.4870   -1.9569    1.9300 N   0  0  0  0  0  0  0  0  0  0  0  0
   -0.1112   -3.2594    3.6996 C   0  0  0  0  0  0  0  0  0  0  0  0
   -0.7050   -2.7460    1.5031 N   0  5  0  0  0  0  0  0  0  0  0  0
    1.3606   -1.4844    0.8788 C   0  0  0  0  0  0  0  0  0  0  0  0
   -0.9368   -3.4172    2.6522 C   0  0  0  0  0  0  0  0  0  0  0  0
    1.8740   -0.0699    1.1648 C   0  0  0  0  0  0  0  0  0  0  0  0
   -2.1280   -4.3196    2.6724 C   0  0  0  0  0  0  0  0  0  0  0  0
    2.4484    0.5377   -0.0027 O   0  0  0  0  0  0  0  0  0  0  0  0
    1.6109    1.2464   -0.8215 C   0  0  0  0  0  0  0  0  0  0  0  0
    0.2153    1.2138   -0.7980 C   0  0  0  0  0  0  0  0  0  0  0  0
    2.2575    2.0437   -1.7661 C   0  0  0  0  0  0  0  0  0  0  0  0
   -0.5399    1.9829   -1.7020 C   0  0  0  0  0  0  0  0  0  0  0  0
    1.5240    2.8171   -2.6689 C   0  0  0  0  0  0  0  0  0  0  0  0
    0.1220    2.7983   -2.6476 C   0  0  0  0  0  0  0  0  0  0  0  0
   -1.9436    1.9534   -1.6866 C   0  0  0  0  0  0  0  0  0  0  0  0
   -0.6378    3.5655   -3.5464 C   0  0  0  0  0  0  0  0  0  0  0  0
   -2.6850    2.7207   -2.5866 C   0  0  0  0  0  0  0  0  0  0  0  0
   -2.0330    3.5269   -3.5148 C   0  0  0  0  0  0  0  0  0  0  0  0
   -0.1804   -3.6849    4.6372 H   0  0  0  0  0  0  0  0  0  0  0  0
    0.8203   -1.4775   -0.0447 H   0  0  0  0  0  0  0  0  0  0  0  0
    2.2034   -2.1413    0.8238 H   0  0  0  0  0  0  0  0  0  0  0  0
    2.6196   -0.1208    1.9306 H   0  0  0  0  0  0  0  0  0  0  0  0
    1.0427    0.5282    1.4748 H   0  0  0  0  0  0  0  0  0  0  0  0
   -2.2027   -4.7902    3.6304 H   0  0  0  0  0  0  0  0  0  0  0  0
   -2.0216   -5.0677    1.9148 H   0  0  0  0  0  0  0  0  0  0  0  0
   -3.0125   -3.7469    2.4864 H   0  0  0  0  0  0  0  0  0  0  0  0
   -0.2686    0.6177   -0.1084 H   0  0  0  0  0  0  0  0  0  0  0  0
    3.2888    2.0623   -1.7983 H   0  0  0  0  0  0  0  0  0  0  0  0
    2.0177    3.4069   -3.3569 H   0  0  0  0  0  0  0  0  0  0  0  0
   -2.4333    1.3570   -1.0014 H   0  0  0  0  0  0  0  0  0  0  0  0
   -0.1593    4.1642   -4.2376 H   0  0  0  0  0  0  0  0  0  0  0  0
   -3.7163    2.6901   -2.5637 H   0  0  0  0  0  0  0  0  0  0  0  0
   -2.5805    4.0958   -4.1793 H   0  0  0  0  0  0  0  0  0  0  0  0
  1  2  2  0  0  0  0
  2  3  1  0  0  0  0
  2  4  1  0  0  0  0
  3  5  1  0  0  0  0
  3  6  1  0  0  0  0
  4  7  2  0  0  0  0
  4 21  1  0  0  0  0
  5  7  1  0  0  0  0
  6  8  1  0  0  0  0
  6 22  1  0  0  0  0
  6 23  1  0  0  0  0
  7  9  1  0  0  0  0
  8 10  1  0  0  0  0
  8 24  1  0  0  0  0
  8 25  1  0  0  0  0
  9 26  1  0  0  0  0
  9 27  1  0  0  0  0
  9 28  1  0  0  0  0
 10 11  1  0  0  0  0
 11 12  2  0  0  0  0
 11 13  1  0  0  0  0
 12 14  1  0  0  0  0
 12 29  1  0  0  0  0
 13 15  2  0  0  0  0
 13 30  1  0  0  0  0
 14 16  1  0  0  0  0
 14 17  2  0  0  0  0
 15 16  1  0  0  0  0
 15 31  1  0  0  0  0
 16 18  2  0  0  0  0
 17 19  1  0  0  0  0
 17 32  1  0  0  0  0
 18 20  1  0  0  0  0
 18 33  1  0  0  0  0
 19 20  2  0  0  0  0
 19 34  1  0  0  0  0
 20 35  1  0  0  0  0
M  CHG  1   5  -1
M  END
>  <Column 1>
Cc1cc(=O)n(CCOc2ccc3ccccc3c2)[n-]1 ZINC000000001764

>  <Column 2>
Decoy129

>  <MMFF94 Energy>
50.153

$$$$
Decoy130
 OpenBabel07082414533D

 34 37  0  0  1  0  0  0  0  0999 V2000
    0.6329    0.5424   -2.3520 O   0  0  0  0  0  0  0  0  0  0  0  0
    0.8959    0.3702   -0.9384 C   0  0  2  0  0  0  0  0  0  0  0  0
    1.9204    0.2694   -2.9276 C   0  0  1  0  0  0  0  0  0  0  0  0
    1.9051   -0.6680   -0.8088 O   0  0  0  0  0  0  0  0  0  0  0  0
   -0.3584    0.0616   -0.1616 C   0  0  0  0  0  0  0  0  0  0  0  0
    1.5782    1.6896   -0.4652 C   0  0  0  0  0  0  0  0  0  0  0  0
    2.8382    1.4887   -2.6596 C   0  0  0  0  0  0  0  0  0  0  0  0
    2.3062   -0.9705   -2.1544 C   0  0  0  0  0  0  0  0  0  0  0  0
   -0.3102   -0.7240    1.0039 C   0  0  0  0  0  0  0  0  0  0  0  0
   -1.5968    0.5882   -0.5564 C   0  0  0  0  0  0  0  0  0  0  0  0
    2.9336    1.8004   -1.1783 N   0  3  0  0  0  0  0  0  0  0  0  0
   -1.4636   -0.9836    1.7651 C   0  0  0  0  0  0  0  0  0  0  0  0
   -2.7516    0.3382    0.1895 C   0  0  0  0  0  0  0  0  0  0  0  0
   -2.7007   -0.4425    1.3523 C   0  0  0  0  0  0  0  0  0  0  0  0
   -1.4136   -1.7707    2.9273 C   0  0  0  0  0  0  0  0  0  0  0  0
   -3.8532   -0.7001    2.1115 C   0  0  0  0  0  0  0  0  0  0  0  0
   -2.5680   -2.0175    3.6721 C   0  0  0  0  0  0  0  0  0  0  0  0
   -3.7861   -1.4824    3.2649 C   0  0  0  0  0  0  0  0  0  0  0  0
    1.9679    0.1168   -3.9856 H   0  0  0  0  0  0  0  0  0  0  0  0
    1.7256    1.6632    0.5943 H   0  0  0  0  0  0  0  0  0  0  0  0
    0.9629    2.5330   -0.6998 H   0  0  0  0  0  0  0  0  0  0  0  0
    2.4404    2.3414   -3.1690 H   0  0  0  0  0  0  0  0  0  0  0  0
    3.8193    1.2540   -3.0162 H   0  0  0  0  0  0  0  0  0  0  0  0
    3.3609   -1.1421   -2.2092 H   0  0  0  0  0  0  0  0  0  0  0  0
    1.8462   -1.8581   -2.5357 H   0  0  0  0  0  0  0  0  0  0  0  0
    0.5933   -1.1194    1.3077 H   0  0  0  0  0  0  0  0  0  0  0  0
   -1.6559    1.1675   -1.4084 H   0  0  0  0  0  0  0  0  0  0  0  0
    3.5846    1.1440   -0.7472 H   0  0  0  0  0  0  0  0  0  0  0  0
    3.2551    2.7639   -1.0846 H   0  0  0  0  0  0  0  0  0  0  0  0
   -3.6534    0.7334   -0.1197 H   0  0  0  0  0  0  0  0  0  0  0  0
   -0.5132   -2.1711    3.2340 H   0  0  0  0  0  0  0  0  0  0  0  0
   -4.7595   -0.3067    1.8134 H   0  0  0  0  0  0  0  0  0  0  0  0
   -2.5180   -2.5968    4.5247 H   0  0  0  0  0  0  0  0  0  0  0  0
   -4.6397   -1.6641    3.8158 H   0  0  0  0  0  0  0  0  0  0  0  0
  1  2  1  0  0  0  0
  1  3  1  0  0  0  0
  2  4  1  0  0  0  0
  2  5  1  1  0  0  0
  2  6  1  0  0  0  0
  3  7  1  0  0  0  0
  3  8  1  0  0  0  0
  3 19  1  6  0  0  0
  4  8  1  0  0  0  0
  5  9  2  0  0  0  0
  5 10  1  0  0  0  0
  6 11  1  0  0  0  0
  6 20  1  0  0  0  0
  6 21  1  0  0  0  0
  7 11  1  0  0  0  0
  7 22  1  0  0  0  0
  7 23  1  0  0  0  0
  8 24  1  0  0  0  0
  8 25  1  0  0  0  0
  9 12  1  0  0  0  0
  9 26  1  0  0  0  0
 10 13  2  0  0  0  0
 10 27  1  0  0  0  0
 11 28  1  0  0  0  0
 11 29  1  0  0  0  0
 12 14  1  0  0  0  0
 12 15  2  0  0  0  0
 13 14  1  0  0  0  0
 13 30  1  0  0  0  0
 14 16  2  0  0  0  0
 15 17  1  0  0  0  0
 15 31  1  0  0  0  0
 16 18  1  0  0  0  0
 16 32  1  0  0  0  0
 17 18  2  0  0  0  0
 17 33  1  0  0  0  0
 18 34  1  0  0  0  0
M  CHG  1  11   1
M  END
>  <Column 1>
c1ccc2cc([C@@]34C[NH2+]C[C@@H](CO3)O4)ccc2c1 ZINC000000001768

>  <Column 2>
Decoy130

>  <MMFF94 Energy>
146.58

$$$$
Decoy131
 OpenBabel07082414533D

 37 38  0  0  0  0  0  0  0  0999 V2000
   -1.9029    0.5434   -0.7246 S   0  0  0  0  0  0  0  0  0  0  0  0
   -0.5684   -0.4918   -1.0557 C   0  0  0  0  0  0  0  0  0  0  0  0
   -2.5048    0.4332   -2.3258 C   0  0  0  0  0  0  0  0  0  0  0  0
    0.3831   -0.8492   -0.0359 C   0  0  0  0  0  0  0  0  0  0  0  0
   -0.6157   -0.9332   -2.3656 C   0  0  0  0  0  0  0  0  0  0  0  0
   -1.7148   -0.3970   -3.0952 C   0  0  0  0  0  0  0  0  0  0  0  0
   -3.7488    1.1739   -2.7621 C   0  0  0  0  0  0  0  0  0  0  0  0
    1.0691    0.1656    0.5364 C   0  0  0  0  0  0  0  0  0  0  0  0
    0.6131   -2.2986    0.3400 C   0  0  0  0  0  0  0  0  0  0  0  0
   -4.9918    0.7096   -2.0014 C   0  0  0  0  0  0  0  0  0  0  0  0
   -3.5781    2.6909   -2.6683 C   0  0  0  0  0  0  0  0  0  0  0  0
    2.1014    0.0132    1.5654 C   0  0  0  0  0  0  0  0  0  0  0  0
    1.7738    0.1694    2.9146 C   0  0  0  0  0  0  0  0  0  0  0  0
    3.4164   -0.2957    1.2061 C   0  0  0  0  0  0  0  0  0  0  0  0
    2.7562    0.0137    3.8974 C   0  0  0  0  0  0  0  0  0  0  0  0
    4.3952   -0.4504    2.1922 C   0  0  0  0  0  0  0  0  0  0  0  0
    4.0813   -0.2995    3.5529 C   0  0  0  0  0  0  0  0  0  0  0  0
    5.1450   -0.4719    4.6212 C   0  0  0  0  0  0  0  0  0  0  0  0
    6.3198   -0.7590    4.2280 O   0  0  0  0  0  0  0  0  0  0  0  0
    4.7826   -0.3176    5.8305 O   0  5  0  0  0  0  0  0  0  0  0  0
    0.0743   -1.5840   -2.7723 H   0  0  0  0  0  0  0  0  0  0  0  0
   -1.9001   -0.6059   -4.0887 H   0  0  0  0  0  0  0  0  0  0  0  0
   -3.8969    0.9322   -3.7939 H   0  0  0  0  0  0  0  0  0  0  0  0
    0.8482    1.1239    0.2237 H   0  0  0  0  0  0  0  0  0  0  0  0
   -0.0363   -2.9239   -0.2363 H   0  0  0  0  0  0  0  0  0  0  0  0
    0.4072   -2.4340    1.3812 H   0  0  0  0  0  0  0  0  0  0  0  0
    1.6309   -2.5616    0.1406 H   0  0  0  0  0  0  0  0  0  0  0  0
   -4.8789    0.9359   -0.9617 H   0  0  0  0  0  0  0  0  0  0  0  0
   -5.1122   -0.3463   -2.1256 H   0  0  0  0  0  0  0  0  0  0  0  0
   -5.8538    1.2144   -2.3847 H   0  0  0  0  0  0  0  0  0  0  0  0
   -3.4272    2.9703   -1.6465 H   0  0  0  0  0  0  0  0  0  0  0  0
   -4.4567    3.1726   -3.0438 H   0  0  0  0  0  0  0  0  0  0  0  0
   -2.7310    2.9911   -3.2490 H   0  0  0  0  0  0  0  0  0  0  0  0
    0.8053    0.4000    3.1862 H   0  0  0  0  0  0  0  0  0  0  0  0
    3.6652   -0.4098    0.2111 H   0  0  0  0  0  0  0  0  0  0  0  0
    2.5037    0.1307    4.8912 H   0  0  0  0  0  0  0  0  0  0  0  0
    5.3630   -0.6789    1.9162 H   0  0  0  0  0  0  0  0  0  0  0  0
  1  2  1  0  0  0  0
  1  3  1  0  0  0  0
  2  4  1  0  0  0  0
  2  5  2  0  0  0  0
  3  6  2  0  0  0  0
  3  7  1  0  0  0  0
  4  8  2  0  0  0  0
  4  9  1  0  0  0  0
  5  6  1  0  0  0  0
  5 21  1  0  0  0  0
  6 22  1  0  0  0  0
  7 10  1  0  0  0  0
  7 11  1  0  0  0  0
  7 23  1  0  0  0  0
  8 12  1  0  0  0  0
  8 24  1  0  0  0  0
  9 25  1  0  0  0  0
  9 26  1  0  0  0  0
  9 27  1  0  0  0  0
 10 28  1  0  0  0  0
 10 29  1  0  0  0  0
 10 30  1  0  0  0  0
 11 31  1  0  0  0  0
 11 32  1  0  0  0  0
 11 33  1  0  0  0  0
 12 13  2  0  0  0  0
 12 14  1  0  0  0  0
 13 15  1  0  0  0  0
 13 34  1  0  0  0  0
 14 16  2  0  0  0  0
 14 35  1  0  0  0  0
 15 17  2  0  0  0  0
 15 36  1  0  0  0  0
 16 17  1  0  0  0  0
 16 37  1  0  0  0  0
 17 18  1  0  0  0  0
 18 19  2  0  0  0  0
 18 20  1  0  0  0  0
M  CHG  1  20  -1
M  END
>  <Column 1>
C/C(=C\c1ccc(C(=O)[O-])cc1)c1ccc(C(C)C)s1 ZINC000000001774

>  <Column 2>
Decoy131

>  <MMFF94 Energy>
58.906

$$$$
Decoy132
 OpenBabel07082414533D

 31 33  0  0  1  0  0  0  0  0999 V2000
   -2.8948    1.4028    1.4028 O   0  0  0  0  0  0  0  0  0  0  0  0
   -1.7642    1.1292    1.0014 C   0  0  0  0  0  0  0  0  0  0  0  0
   -0.7466    2.1820    0.8355 C   0  0  0  0  0  0  0  0  0  0  0  0
   -1.3309   -0.2797    0.7192 C   0  0  0  0  0  0  0  0  0  0  0  0
    0.5111    1.8170    0.3658 C   0  0  0  0  0  0  0  0  0  0  0  0
   -1.0030    3.5099    1.1663 C   0  0  0  0  0  0  0  0  0  0  0  0
   -0.2900   -0.2420   -0.3902 C   0  0  1  0  0  0  0  0  0  0  0  0
    0.8467    0.5338    0.0105 O   0  0  0  0  0  0  0  0  0  0  0  0
    1.5163    2.7822    0.2633 C   0  0  0  0  0  0  0  0  0  0  0  0
   -2.2206    3.9391    1.6307 O   0  0  0  0  0  0  0  0  0  0  0  0
    0.0113    4.4612    1.0352 C   0  0  0  0  0  0  0  0  0  0  0  0
    0.1591   -1.6545   -0.7320 C   0  0  0  0  0  0  0  0  0  0  0  0
    1.3108    4.1397    0.5851 C   0  0  0  0  0  0  0  0  0  0  0  0
   -0.5202   -2.3845   -1.7215 C   0  0  0  0  0  0  0  0  0  0  0  0
    1.2230   -2.2700   -0.0518 C   0  0  0  0  0  0  0  0  0  0  0  0
    2.2338    5.0107    0.4753 O   0  5  0  0  0  0  0  0  0  0  0  0
   -0.1377   -3.6921   -2.0278 C   0  0  0  0  0  0  0  0  0  0  0  0
    1.6079   -3.5769   -0.3602 C   0  0  0  0  0  0  0  0  0  0  0  0
    0.9228   -4.2767   -1.3473 C   0  0  0  0  0  0  0  0  0  0  0  0
    1.2673   -5.5542   -1.6791 O   0  0  0  0  0  0  0  0  0  0  0  0
   -2.1725   -0.8621    0.4071 H   0  0  0  0  0  0  0  0  0  0  0  0
   -0.9169   -0.7233    1.6005 H   0  0  0  0  0  0  0  0  0  0  0  0
   -0.7343    0.2110   -1.2518 H   0  0  0  0  0  0  0  0  0  0  0  0
    2.4505    2.4886   -0.0623 H   0  0  0  0  0  0  0  0  0  0  0  0
   -2.9249    3.3294    1.7317 H   0  0  0  0  0  0  0  0  0  0  0  0
   -0.1981    5.4422    1.2779 H   0  0  0  0  0  0  0  0  0  0  0  0
   -1.3088   -1.9506   -2.2264 H   0  0  0  0  0  0  0  0  0  0  0  0
    1.7261   -1.7505    0.6844 H   0  0  0  0  0  0  0  0  0  0  0  0
   -0.6408   -4.2219   -2.7567 H   0  0  0  0  0  0  0  0  0  0  0  0
    2.3943   -4.0194    0.1405 H   0  0  0  0  0  0  0  0  0  0  0  0
    0.7931   -6.0088   -2.3472 H   0  0  0  0  0  0  0  0  0  0  0  0
  1  2  2  0  0  0  0
  2  3  1  0  0  0  0
  2  4  1  0  0  0  0
  3  5  2  0  0  0  0
  3  6  1  0  0  0  0
  4  7  1  0  0  0  0
  4 21  1  0  0  0  0
  4 22  1  0  0  0  0
  5  8  1  0  0  0  0
  5  9  1  0  0  0  0
  6 10  1  0  0  0  0
  6 11  2  0  0  0  0
  7 12  1  0  0  0  0
  7  8  1  0  0  0  0
  7 23  1  6  0  0  0
  9 13  2  0  0  0  0
  9 24  1  0  0  0  0
 10 25  1  0  0  0  0
 11 13  1  0  0  0  0
 11 26  1  0  0  0  0
 12 14  2  0  0  0  0
 12 15  1  0  0  0  0
 13 16  1  0  0  0  0
 14 17  1  0  0  0  0
 14 27  1  0  0  0  0
 15 18  2  0  0  0  0
 15 28  1  0  0  0  0
 17 19  2  0  0  0  0
 17 29  1  0  0  0  0
 18 19  1  0  0  0  0
 18 30  1  0  0  0  0
 19 20  1  0  0  0  0
 20 31  1  0  0  0  0
M  CHG  1  16  -1
M  END
>  <Column 1>
O=C1C[C@H](c2ccc(O)cc2)Oc2cc([O-])cc(O)c21 ZINC000000001785

>  <Column 2>
Decoy132

>  <MMFF94 Energy>
15.754

$$$$
Decoy133
 OpenBabel07082414533D

 27 28  0  0  0  0  0  0  0  0999 V2000
    1.0324    6.2921   -1.7211 O   0  0  0  0  0  0  0  0  0  0  0  0
    0.7594    5.0917   -1.8681 N   0  3  0  0  0  0  0  0  0  0  0  0
    0.4734    4.5436   -2.9398 O   0  5  0  0  0  0  0  0  0  0  0  0
    0.7828    4.2923   -0.6852 C   0  0  0  0  0  0  0  0  0  0  0  0
    0.4906    2.9776   -0.8336 O   0  0  0  0  0  0  0  0  0  0  0  0
    1.0533    4.6078    0.6207 C   0  0  0  0  0  0  0  0  0  0  0  0
    0.5671    2.3906    0.4152 C   0  0  0  0  0  0  0  0  0  0  0  0
    0.9146    3.3874    1.3263 C   0  0  0  0  0  0  0  0  0  0  0  0
    0.3256    1.0136    0.6729 C   0  0  0  0  0  0  0  0  0  0  0  0
   -0.0127    0.1673   -0.3116 C   0  0  0  0  0  0  0  0  0  0  0  0
   -0.2850   -1.2586   -0.0807 C   0  0  0  0  0  0  0  0  0  0  0  0
    0.5150   -2.0421    0.7599 C   0  0  0  0  0  0  0  0  0  0  0  0
   -1.3510   -1.8649   -0.7543 C   0  0  0  0  0  0  0  0  0  0  0  0
    0.2322   -3.3993    0.9473 C   0  0  0  0  0  0  0  0  0  0  0  0
   -1.6316   -3.2225   -0.5644 C   0  0  0  0  0  0  0  0  0  0  0  0
   -0.8481   -4.0101    0.2928 C   0  0  0  0  0  0  0  0  0  0  0  0
   -1.1567   -5.4804    0.5040 C   0  0  0  0  0  0  0  0  0  0  0  0
   -2.1493   -5.9609   -0.1289 O   0  0  0  0  0  0  0  0  0  0  0  0
   -0.4004   -6.1215    1.3005 O   0  5  0  0  0  0  0  0  0  0  0  0
    1.3033    5.5321    1.0057 H   0  0  0  0  0  0  0  0  0  0  0  0
    1.0480    3.2581    2.3414 H   0  0  0  0  0  0  0  0  0  0  0  0
    0.4123    0.6574    1.6376 H   0  0  0  0  0  0  0  0  0  0  0  0
   -0.0850    0.5336   -1.2737 H   0  0  0  0  0  0  0  0  0  0  0  0
    1.3196   -1.6150    1.2450 H   0  0  0  0  0  0  0  0  0  0  0  0
   -1.9349   -1.3064   -1.3963 H   0  0  0  0  0  0  0  0  0  0  0  0
    0.8275   -3.9600    1.5768 H   0  0  0  0  0  0  0  0  0  0  0  0
   -2.4272   -3.6512   -1.0626 H   0  0  0  0  0  0  0  0  0  0  0  0
  1  2  2  0  0  0  0
  2  3  1  0  0  0  0
  2  4  1  0  0  0  0
  4  5  1  0  0  0  0
  4  6  2  0  0  0  0
  5  7  1  0  0  0  0
  6  8  1  0  0  0  0
  6 20  1  0  0  0  0
  7  9  1  0  0  0  0
  7  8  2  0  0  0  0
  8 21  1  0  0  0  0
  9 10  2  0  0  0  0
  9 22  1  0  0  0  0
 10 11  1  0  0  0  0
 10 23  1  0  0  0  0
 11 12  2  0  0  0  0
 11 13  1  0  0  0  0
 12 14  1  0  0  0  0
 12 24  1  0  0  0  0
 13 15  2  0  0  0  0
 13 25  1  0  0  0  0
 14 16  2  0  0  0  0
 14 26  1  0  0  0  0
 15 16  1  0  0  0  0
 15 27  1  0  0  0  0
 16 17  1  0  0  0  0
 17 18  2  0  0  0  0
 17 19  1  0  0  0  0
M  CHG  3   2   1   3  -1  19  -1
M  END
>  <Column 1>
O=C([O-])c1ccc(/C=C/c2ccc([N+](=O)[O-])o2)cc1 ZINC000000001812

>  <Column 2>
Decoy133

>  <MMFF94 Energy>
79.087

$$$$
Decoy134
 OpenBabel07082414533D

 36 38  0  0  0  0  0  0  0  0999 V2000
   -0.1733   -0.4333    5.9046 O   0  0  0  0  0  0  0  0  0  0  0  0
    0.2949   -0.5679    4.7652 N   0  3  0  0  0  0  0  0  0  0  0  0
    1.3684   -1.1308    4.5081 O   0  5  0  0  0  0  0  0  0  0  0  0
   -0.4678   -0.0085    3.6434 C   0  0  0  0  0  0  0  0  0  0  0  0
   -0.0289   -0.2287    2.3322 C   0  0  0  0  0  0  0  0  0  0  0  0
   -1.6246    0.7435    3.8973 C   0  0  0  0  0  0  0  0  0  0  0  0
   -0.7606    0.3147    1.2715 C   0  0  0  0  0  0  0  0  0  0  0  0
   -2.3506    1.2741    2.8293 C   0  0  0  0  0  0  0  0  0  0  0  0
   -0.3454    0.0826   -0.0624 N   0  0  0  0  0  0  0  0  0  0  0  0
   -1.9227    1.0578    1.5183 C   0  0  0  0  0  0  0  0  0  0  0  0
   -0.8113   -1.0624   -0.7091 C   0  0  0  0  0  0  0  0  0  0  0  0
    0.5475    1.0079   -0.6646 C   0  0  0  0  0  0  0  0  0  0  0  0
   -1.5657   -1.8680   -0.1555 O   0  0  0  0  0  0  0  0  0  0  0  0
   -0.3730   -1.2544   -2.0175 N   0  0  0  0  0  0  0  0  0  0  0  0
    0.9978    0.7638   -1.9615 C   0  0  0  0  0  0  0  0  0  0  0  0
    1.0083    2.1666   -0.0124 C   0  0  0  0  0  0  0  0  0  0  0  0
    0.5335   -0.4356   -2.6787 C   0  0  0  0  0  0  0  0  0  0  0  0
   -0.8415   -2.4450   -2.7218 C   0  0  0  0  0  0  0  0  0  0  0  0
    1.8874    1.6444   -2.5977 C   0  0  0  0  0  0  0  0  0  0  0  0
    1.8940    3.0463   -0.6445 C   0  0  0  0  0  0  0  0  0  0  0  0
    0.9621   -0.6611   -3.8083 O   0  0  0  0  0  0  0  0  0  0  0  0
    0.0681   -3.6401   -2.4709 C   0  0  0  0  0  0  0  0  0  0  0  0
    2.3346    2.7853   -1.9371 C   0  0  0  0  0  0  0  0  0  0  0  0
    0.8220   -0.7838    2.1512 H   0  0  0  0  0  0  0  0  0  0  0  0
   -1.9371    0.9035    4.8678 H   0  0  0  0  0  0  0  0  0  0  0  0
   -3.2037    1.8263    3.0091 H   0  0  0  0  0  0  0  0  0  0  0  0
   -2.4632    1.4459    0.7294 H   0  0  0  0  0  0  0  0  0  0  0  0
    0.6880    2.3707    0.9472 H   0  0  0  0  0  0  0  0  0  0  0  0
   -0.8643   -2.2406   -3.7718 H   0  0  0  0  0  0  0  0  0  0  0  0
   -1.8183   -2.6861   -2.3576 H   0  0  0  0  0  0  0  0  0  0  0  0
    2.2105    1.4454   -3.5574 H   0  0  0  0  0  0  0  0  0  0  0  0
    2.2210    3.8910   -0.1500 H   0  0  0  0  0  0  0  0  0  0  0  0
    1.0524   -3.4204   -2.8282 H   0  0  0  0  0  0  0  0  0  0  0  0
   -0.3160   -4.4952   -2.9868 H   0  0  0  0  0  0  0  0  0  0  0  0
    0.1070   -3.8446   -1.4213 H   0  0  0  0  0  0  0  0  0  0  0  0
    2.9887    3.4329   -2.4037 H   0  0  0  0  0  0  0  0  0  0  0  0
  1  2  2  0  0  0  0
  2  3  1  0  0  0  0
  2  4  1  0  0  0  0
  4  5  2  0  0  0  0
  4  6  1  0  0  0  0
  5  7  1  0  0  0  0
  5 24  1  0  0  0  0
  6  8  2  0  0  0  0
  6 25  1  0  0  0  0
  7  9  1  0  0  0  0
  7 10  2  0  0  0  0
  8 10  1  0  0  0  0
  8 26  1  0  0  0  0
  9 11  1  0  0  0  0
  9 12  1  0  0  0  0
 10 27  1  0  0  0  0
 11 13  2  0  0  0  0
 11 14  1  0  0  0  0
 12 15  2  0  0  0  0
 12 16  1  0  0  0  0
 14 17  1  0  0  0  0
 14 18  1  0  0  0  0
 15 19  1  0  0  0  0
 15 17  1  0  0  0  0
 16 20  2  0  0  0  0
 16 28  1  0  0  0  0
 17 21  2  0  0  0  0
 18 22  1  0  0  0  0
 18 29  1  0  0  0  0
 18 30  1  0  0  0  0
 19 23  2  0  0  0  0
 19 31  1  0  0  0  0
 20 23  1  0  0  0  0
 20 32  1  0  0  0  0
 22 33  1  0  0  0  0
 22 34  1  0  0  0  0
 22 35  1  0  0  0  0
 23 36  1  0  0  0  0
M  CHG  2   2   1   3  -1
M  END
>  <Column 1>
CCn1c(=O)c2ccccc2n(-c2cccc([N+](=O)[O-])c2)c1=O ZINC000000001819

>  <Column 2>
Decoy134

>  <MMFF94 Energy>
24.365

$$$$
Decoy135
 OpenBabel07082414533D

 15 15  0  0  0  0  0  0  0  0999 V2000
   -2.5673   -2.8331   -0.2654 I   0  0  0  0  0  0  0  0  0  0  0  0
   -1.1252   -1.2607   -0.1067 C   0  0  0  0  0  0  0  0  0  0  0  0
   -0.2183   -1.1888    0.9850 C   0  0  0  0  0  0  0  0  0  0  0  0
   -1.1571   -0.3249   -1.1600 C   0  0  0  0  0  0  0  0  0  0  0  0
   -0.1830   -2.0331    1.9439 O   0  5  0  0  0  0  0  0  0  0  0  0
    0.6534   -0.0710    0.9000 C   0  0  0  0  0  0  0  0  0  0  0  0
   -0.2690    0.7460   -1.1731 C   0  0  0  0  0  0  0  0  0  0  0  0
    1.6553    0.1645    1.9372 N   0  3  0  0  0  0  0  0  0  0  0  0
    0.6459    0.8805   -0.1388 C   0  0  0  0  0  0  0  0  0  0  0  0
   -0.3000    1.6977   -2.2424 C   0  0  0  0  0  0  0  0  0  0  0  0
    2.8007   -0.2739    1.7303 O   0  0  0  0  0  0  0  0  0  0  0  0
    1.3486    0.9442    2.8565 O   0  5  0  0  0  0  0  0  0  0  0  0
   -0.3245    2.4702   -3.1094 N   0  0  0  0  0  0  0  0  0  0  0  0
   -1.8417   -0.4344   -1.9244 H   0  0  0  0  0  0  0  0  0  0  0  0
    1.3128    1.6680   -0.1306 H   0  0  0  0  0  0  0  0  0  0  0  0
  1  2  1  0  0  0  0
  2  3  2  0  0  0  0
  2  4  1  0  0  0  0
  3  5  1  0  0  0  0
  3  6  1  0  0  0  0
  4  7  2  0  0  0  0
  4 14  1  0  0  0  0
  6  8  1  0  0  0  0
  6  9  2  0  0  0  0
  7 10  1  0  0  0  0
  7  9  1  0  0  0  0
  8 11  2  0  0  0  0
  8 12  1  0  0  0  0
  9 15  1  0  0  0  0
 10 13  3  0  0  0  0
M  CHG  3   5  -1   8   1  12  -1
M  END
>  <Column 1>
N#Cc1cc(I)c([O-])c([N+](=O)[O-])c1 ZINC000000001823

>  <Column 2>
Decoy135

>  <MMFF94 Energy>
75.136

$$$$
Decoy136
 OpenBabel07082414533D

 31 32  0  0  0  0  0  0  0  0999 V2000
    1.8376    1.9252   -2.4507 O   0  0  0  0  0  0  0  0  0  0  0  0
    1.9401    0.7064   -2.1041 C   0  0  0  0  0  0  0  0  0  0  0  0
    2.9857    0.1513   -1.6350 O   0  5  0  0  0  0  0  0  0  0  0  0
    0.7821   -0.1957   -2.3806 C   0  0  0  0  0  0  0  0  0  0  0  0
   -0.5120    0.0212   -1.9147 C   0  0  0  0  0  0  0  0  0  0  0  0
    1.0064   -1.3137   -3.2052 C   0  0  0  0  0  0  0  0  0  0  0  0
   -1.5564   -0.7764   -2.2878 N   0  0  0  0  0  0  0  0  0  0  0  0
   -0.8915    1.0369   -1.0142 N   0  0  0  0  0  0  0  0  0  0  0  0
   -0.0417   -2.1444   -3.5685 C   0  0  0  0  0  0  0  0  0  0  0  0
   -1.2966   -1.8262   -3.0956 C   0  0  0  0  0  0  0  0  0  0  0  0
   -0.3420    1.1619    0.2926 C   0  0  0  0  0  0  0  0  0  0  0  0
   -0.6175    0.2460    1.3385 C   0  0  0  0  0  0  0  0  0  0  0  0
    0.5234    2.2383    0.5266 C   0  0  0  0  0  0  0  0  0  0  0  0
    0.0131    0.4242    2.5959 C   0  0  0  0  0  0  0  0  0  0  0  0
   -1.5138   -0.9420    1.0926 C   0  0  0  0  0  0  0  0  0  0  0  0
    1.1209    2.4222    1.7684 C   0  0  0  0  0  0  0  0  0  0  0  0
    0.8655    1.5222    2.7971 C   0  0  0  0  0  0  0  0  0  0  0  0
   -0.1940   -0.5366    3.7349 C   0  0  0  0  0  0  0  0  0  0  0  0
    1.9603   -1.5169   -3.5426 H   0  0  0  0  0  0  0  0  0  0  0  0
   -1.5686    1.6907   -1.3028 H   0  0  0  0  0  0  0  0  0  0  0  0
    0.1115   -2.9691   -4.1697 H   0  0  0  0  0  0  0  0  0  0  0  0
   -2.0866   -2.4279   -3.3765 H   0  0  0  0  0  0  0  0  0  0  0  0
    0.7207    2.9058   -0.2353 H   0  0  0  0  0  0  0  0  0  0  0  0
   -1.8932   -0.9017    0.0929 H   0  0  0  0  0  0  0  0  0  0  0  0
   -2.3296   -0.9226    1.7847 H   0  0  0  0  0  0  0  0  0  0  0  0
   -0.9545   -1.8444    1.2257 H   0  0  0  0  0  0  0  0  0  0  0  0
    1.7516    3.2237    1.9261 H   0  0  0  0  0  0  0  0  0  0  0  0
    1.3074    1.6626    3.7191 H   0  0  0  0  0  0  0  0  0  0  0  0
   -0.8637   -1.3131    3.4292 H   0  0  0  0  0  0  0  0  0  0  0  0
   -0.6109   -0.0145    4.5706 H   0  0  0  0  0  0  0  0  0  0  0  0
    0.7454   -0.9656    4.0149 H   0  0  0  0  0  0  0  0  0  0  0  0
  1  2  2  0  0  0  0
  2  3  1  0  0  0  0
  2  4  1  0  0  0  0
  4  5  2  0  0  0  0
  4  6  1  0  0  0  0
  5  7  1  0  0  0  0
  5  8  1  0  0  0  0
  6  9  2  0  0  0  0
  6 19  1  0  0  0  0
  7 10  2  0  0  0  0
  8 11  1  0  0  0  0
  8 20  1  0  0  0  0
  9 10  1  0  0  0  0
  9 21  1  0  0  0  0
 10 22  1  0  0  0  0
 11 12  2  0  0  0  0
 11 13  1  0  0  0  0
 12 14  1  0  0  0  0
 12 15  1  0  0  0  0
 13 16  2  0  0  0  0
 13 23  1  0  0  0  0
 14 17  2  0  0  0  0
 14 18  1  0  0  0  0
 15 24  1  0  0  0  0
 15 25  1  0  0  0  0
 15 26  1  0  0  0  0
 16 17  1  0  0  0  0
 16 27  1  0  0  0  0
 17 28  1  0  0  0  0
 18 29  1  0  0  0  0
 18 30  1  0  0  0  0
 18 31  1  0  0  0  0
M  CHG  1   3  -1
M  END
>  <Column 1>
Cc1cccc(Nc2ncccc2C(=O)[O-])c1C ZINC000000001824

>  <Column 2>
Decoy136

>  <MMFF94 Energy>
34.645

$$$$
