Compound 1
Actelion Java MolfileCreator 1.0

 38 40  0  0  1  0  0  0  0  0999 V2000
    2.3051    1.6688    0.8739 O   0  0  0  0  0  0  0  0  0  0  0  0
    1.2736    1.8337    0.2156 C   0  0  0  0  0  0  0  0  0  0  0  0
    0.7116    0.7859   -0.5385 N   0  0  0  0  0  0  0  0  0  0  0  0
    0.6091    3.0781    0.1972 N   0  0  0  0  0  0  0  0  0  0  0  0
   -0.4467    1.0658   -1.2319 C   0  0  0  0  0  0  0  0  0  0  0  0
    1.3649   -0.5240   -0.5408 C   0  0  0  0  0  0  0  0  0  0  0  0
   -0.5764    3.3864   -0.4940 C   0  0  0  0  0  0  0  0  0  0  0  0
    1.2167    4.1328    0.9846 C   0  0  0  0  0  0  0  0  0  0  0  0
   -1.1768    0.2371   -2.0317 N   0  0  0  0  0  0  0  0  0  0  0  0
   -1.0971    2.2678   -1.2475 C   0  0  0  0  0  0  0  0  0  0  0  0
    0.6609   -1.5577    0.3569 C   0  0  0  0  0  0  0  0  0  0  0  0
   -1.1226    4.4865   -0.4674 O   0  0  0  0  0  0  0  0  0  0  0  0
   -2.2488    0.9645   -2.5002 C   0  0  0  0  0  0  0  0  0  0  0  0
   -2.2198    2.2003   -2.0382 N   0  0  0  0  0  0  0  0  0  0  0  0
    1.2861   -2.9487    0.1304 C   0  0  0  0  0  0  0  0  0  0  0  0
    0.7244   -1.1871    1.8473 C   0  0  0  0  0  0  0  0  0  0  0  0
   -3.2676    0.3784   -3.4026 C   0  0  0  0  0  0  0  0  0  0  0  0
    0.8498   -3.9650    1.1436 C   0  0  0  0  0  0  0  0  0  0  0  0
   -0.0089   -2.2179    2.7121 C   0  0  0  0  0  0  0  0  0  0  0  0
    0.2540   -3.6354    2.2984 C   0  0  0  0  0  0  0  0  0  0  0  0
    2.4120   -0.4185   -0.2334 H   0  0  0  0  0  0  0  0  0  0  0  0
    1.3857   -0.8779   -1.5794 H   0  0  0  0  0  0  0  0  0  0  0  0
    1.2441    3.8194    2.0336 H   0  0  0  0  0  0  0  0  0  0  0  0
    2.2473    4.2826    0.6458 H   0  0  0  0  0  0  0  0  0  0  0  0
    0.6794    5.0815    0.9122 H   0  0  0  0  0  0  0  0  0  0  0  0
   -0.9842   -0.7308   -2.2446 H   0  0  0  0  0  0  0  0  0  0  0  0
   -0.3988   -1.6114    0.0712 H   0  0  0  0  0  0  0  0  0  0  0  0
    2.3812   -2.8881    0.1563 H   0  0  0  0  0  0  0  0  0  0  0  0
    1.0089   -3.3040   -0.8695 H   0  0  0  0  0  0  0  0  0  0  0  0
    1.7731   -1.1242    2.1664 H   0  0  0  0  0  0  0  0  0  0  0  0
    0.2786   -0.2023    2.0264 H   0  0  0  0  0  0  0  0  0  0  0  0
   -4.0318    1.1203   -3.6540 H   0  0  0  0  0  0  0  0  0  0  0  0
   -3.7622   -0.4721   -2.9235 H   0  0  0  0  0  0  0  0  0  0  0  0
   -2.8054    0.0355   -4.3333 H   0  0  0  0  0  0  0  0  0  0  0  0
    1.0367   -5.0118    0.9161 H   0  0  0  0  0  0  0  0  0  0  0  0
    0.2893   -2.0822    3.7580 H   0  0  0  0  0  0  0  0  0  0  0  0
   -1.0897   -2.0393    2.6607 H   0  0  0  0  0  0  0  0  0  0  0  0
   -0.0537   -4.4184    2.9878 H   0  0  0  0  0  0  0  0  0  0  0  0
  1  2  2  0  0  0  0
  2  3  1  0  0  0  0
  2  4  1  0  0  0  0
  3  5  1  0  0  0  0
  3  6  1  0  0  0  0
  4  7  1  0  0  0  0
  4  8  1  0  0  0  0
  5  9  1  0  0  0  0
  5 10  2  0  0  0  0
  6 11  1  0  0  0  0
  7 12  2  0  0  0  0
  9 13  1  0  0  0  0
 10 14  1  0  0  0  0
 11 15  1  0  0  0  0
 11 16  1  0  0  0  0
 13 17  1  0  0  0  0
 15 18  1  0  0  0  0
 16 19  1  0  0  0  0
 18 20  2  0  0  0  0
  7 10  1  0  0  0  0
 13 14  2  0  0  0  0
 19 20  1  0  0  0  0
  6 21  1  0  0  0  0
  6 22  1  0  0  0  0
  8 23  1  0  0  0  0
  8 24  1  0  0  0  0
  8 25  1  0  0  0  0
  9 26  1  0  0  0  0
 11 27  1  0  0  0  0
 15 28  1  0  0  0  0
 15 29  1  0  0  0  0
 16 30  1  0  0  0  0
 16 31  1  0  0  0  0
 17 32  1  0  0  0  0
 17 33  1  0  0  0  0
 17 34  1  0  0  0  0
 18 35  1  0  0  0  0
 19 36  1  0  0  0  0
 19 37  1  0  0  0  0
 20 38  1  0  0  0  0
M  END
>  <Column 1>
Cc1nc2c(=O)n(C)c(=O)n(C[C@H]3CC=CCC3)c2[nH]1 ZINC000000000499

>  <Total Molweight>
274.323

>  <cLogP>
1.3972

>  <cLogS>
-2.507

>  <H-Acceptors>
6

>  <H-Donors>
1

>  <Total Surface Area>
209.25

>  <MMFF94 Energy>
-15.608

$$$$
Compound 2
Actelion Java MolfileCreator 1.0

 32 33  0  0  1  0  0  0  0  0999 V2000
    1.4708    3.0250   -0.8169 S   0  0  0  0  0  0  0  0  0  0  0  0
    2.5364    3.6749   -0.0760 O   0  0  0  0  0  0  0  0  0  0  0  0
    0.9479    3.6435   -2.0211 O   0  0  0  0  0  0  0  0  0  0  0  0
    1.9881    1.3823   -1.2264 C   0  0  0  0  0  0  0  0  0  0  0  0
    0.1181    2.7527    0.2888 C   0  0  0  0  0  0  0  0  0  0  0  0
    2.1142    0.4818   -0.0011 C   0  0  0  0  0  0  0  0  0  0  0  0
    0.5234    1.7694    1.3682 C   0  0  0  0  0  0  0  0  0  0  0  0
    0.8893    0.4361    0.8396 N   0  0  0  0  0  0  0  0  0  0  0  0
    3.3745    0.7453    0.8310 C   0  0  0  0  0  0  0  0  0  0  0  0
   -0.1522   -0.2265    0.2612 N   0  0  0  0  0  0  0  0  0  0  0  0
   -0.4576   -1.3260    0.8792 C   0  0  0  0  0  0  0  0  0  0  0  0
   -1.5296   -2.1696    0.4238 C   0  0  0  0  0  0  0  0  0  0  0  0
   -2.2450   -1.8053   -0.6877 O   0  0  0  0  0  0  0  0  0  0  0  0
   -2.0198   -3.3657    0.9214 C   0  0  0  0  0  0  0  0  0  0  0  0
   -3.1779   -2.7739   -0.8796 C   0  0  0  0  0  0  0  0  0  0  0  0
   -3.0898   -3.7581    0.0755 C   0  0  0  0  0  0  0  0  0  0  0  0
   -4.0545   -2.6092   -1.9961 N   0  0  0  0  0  0  0  0  0  0  0  0
   -3.9097   -1.6076   -2.7069 O   0  0  0  0  0  0  0  0  0  0  0  0
   -4.9002   -3.4997   -2.1598 O   0  0  0  0  0  0  0  0  0  0  0  0
    2.9359    1.4616   -1.7682 H   0  0  0  0  0  0  0  0  0  0  0  0
    1.2384    0.9827   -1.9189 H   0  0  0  0  0  0  0  0  0  0  0  0
   -0.7315    2.3915   -0.2991 H   0  0  0  0  0  0  0  0  0  0  0  0
   -0.1505    3.7207    0.7224 H   0  0  0  0  0  0  0  0  0  0  0  0
    2.2599   -0.5365   -0.3904 H   0  0  0  0  0  0  0  0  0  0  0  0
    1.3372    2.1734    1.9799 H   0  0  0  0  0  0  0  0  0  0  0  0
   -0.3182    1.6439    2.0615 H   0  0  0  0  0  0  0  0  0  0  0  0
    3.3892    1.7314    1.3001 H   0  0  0  0  0  0  0  0  0  0  0  0
    4.2685    0.6650    0.2030 H   0  0  0  0  0  0  0  0  0  0  0  0
    3.4682   -0.0002    1.6290 H   0  0  0  0  0  0  0  0  0  0  0  0
    0.0933   -1.6574    1.7790 H   0  0  0  0  0  0  0  0  0  0  0  0
   -1.6490   -3.8915    1.7915 H   0  0  0  0  0  0  0  0  0  0  0  0
   -3.7132   -4.6390    0.1509 H   0  0  0  0  0  0  0  0  0  0  0  0
  1  2  2  0  0  0  0
  1  3  2  0  0  0  0
  1  4  1  0  0  0  0
  1  5  1  0  0  0  0
  4  6  1  0  0  0  0
  5  7  1  0  0  0  0
  6  8  1  0  0  0  0
  6  9  1  0  0  0  0
  8 10  1  0  0  0  0
 10 11  2  0  0  0  0
 11 12  1  0  0  0  0
 12 13  1  0  0  0  0
 12 14  2  0  0  0  0
 13 15  1  0  0  0  0
 14 16  1  0  0  0  0
 15 17  1  0  0  0  0
 17 18  2  0  0  0  0
 17 19  1  0  0  0  0
  7  8  1  0  0  0  0
 15 16  2  0  0  0  0
  4 20  1  0  0  0  0
  4 21  1  0  0  0  0
  5 22  1  0  0  0  0
  5 23  1  0  0  0  0
  6 24  1  0  0  0  0
  7 25  1  0  0  0  0
  7 26  1  0  0  0  0
  9 27  1  0  0  0  0
  9 28  1  0  0  0  0
  9 29  1  0  0  0  0
 11 30  1  0  0  0  0
 14 31  1  0  0  0  0
 16 32  1  0  0  0  0
M  CHG  2  17   1  19  -1
M  END
>  <Column 1>
C[C@@H]1CS(=O)(=O)CCN1/N=C/c1ccc([N+](=O)[O-])o1 ZINC000000000542

>  <Total Molweight>
287.295

>  <cLogP>
-0.2513

>  <cLogS>
-3.005

>  <H-Acceptors>
7

>  <H-Donors>
0

>  <Total Surface Area>
202.8

>  <MMFF94 Energy>
58.942

$$$$
Compound 3
Actelion Java MolfileCreator 1.0

 28 30  0  0  1  0  0  0  0  0999 V2000
   -0.5611   -0.3206    4.3345 O   0  0  0  0  0  0  0  0  0  0  0  0
    0.1230   -0.4453    3.3359 C   0  0  0  0  0  0  0  0  0  0  0  0
    1.3195   -1.0701    3.2575 N   0  0  0  0  0  0  0  0  0  0  0  0
   -0.2025    0.0267    2.0893 N   0  0  0  0  0  0  0  0  0  0  0  0
    1.8034   -1.0406    1.9863 C   0  0  0  0  0  0  0  0  0  0  0  0
    0.8066   -0.2851    1.0926 C   0  0  0  0  0  0  0  0  0  0  0  0
    2.8617   -1.5371    1.6308 O   0  0  0  0  0  0  0  0  0  0  0  0
    0.2841   -1.2083   -0.0104 C   0  0  0  0  0  0  0  0  0  0  0  0
    1.4544    0.9682    0.5112 C   0  0  0  0  0  0  0  0  0  0  0  0
   -0.4997   -0.4707   -1.0724 C   0  0  0  0  0  0  0  0  0  0  0  0
    0.4547    1.7711   -0.3181 C   0  0  0  0  0  0  0  0  0  0  0  0
   -0.3874    0.9221   -1.2386 C   0  0  0  0  0  0  0  0  0  0  0  0
   -1.3150   -1.2063   -1.9463 C   0  0  0  0  0  0  0  0  0  0  0  0
   -1.1218    1.5535   -2.2541 C   0  0  0  0  0  0  0  0  0  0  0  0
   -2.0317   -0.5669   -2.9568 C   0  0  0  0  0  0  0  0  0  0  0  0
   -1.9371    0.8129   -3.1092 C   0  0  0  0  0  0  0  0  0  0  0  0
    1.7794   -1.5045    4.0386 H   0  0  0  0  0  0  0  0  0  0  0  0
   -1.0785    0.5048    1.9163 H   0  0  0  0  0  0  0  0  0  0  0  0
   -0.3443   -1.9952    0.4274 H   0  0  0  0  0  0  0  0  0  0  0  0
    1.1241   -1.7083   -0.5104 H   0  0  0  0  0  0  0  0  0  0  0  0
    2.3016    0.6783   -0.1253 H   0  0  0  0  0  0  0  0  0  0  0  0
    1.8697    1.6071    1.3010 H   0  0  0  0  0  0  0  0  0  0  0  0
   -0.2204    2.3171    0.3528 H   0  0  0  0  0  0  0  0  0  0  0  0
    1.0059    2.5171   -0.9036 H   0  0  0  0  0  0  0  0  0  0  0  0
   -1.3955   -2.2865   -1.8439 H   0  0  0  0  0  0  0  0  0  0  0  0
   -1.0605    2.6320   -2.3852 H   0  0  0  0  0  0  0  0  0  0  0  0
   -2.6628   -1.1460   -3.6259 H   0  0  0  0  0  0  0  0  0  0  0  0
   -2.4972    1.3131   -3.8949 H   0  0  0  0  0  0  0  0  0  0  0  0
  1  2  2  0  0  0  0
  2  3  1  0  0  0  0
  2  4  1  0  0  0  0
  3  5  1  0  0  0  0
  4  6  1  0  0  0  0
  5  7  2  0  0  0  0
  6  8  1  0  0  0  0
  6  9  1  0  0  0  0
  8 10  1  0  0  0  0
  9 11  1  0  0  0  0
 10 12  2  0  0  0  0
 10 13  1  0  0  0  0
 12 14  1  0  0  0  0
 13 15  2  0  0  0  0
 14 16  2  0  0  0  0
  5  6  1  0  0  0  0
 11 12  1  0  0  0  0
 15 16  1  0  0  0  0
  3 17  1  0  0  0  0
  4 18  1  0  0  0  0
  8 19  1  0  0  0  0
  8 20  1  0  0  0  0
  9 21  1  0  0  0  0
  9 22  1  0  0  0  0
 11 23  1  0  0  0  0
 11 24  1  0  0  0  0
 13 25  1  0  0  0  0
 14 26  1  0  0  0  0
 15 27  1  0  0  0  0
 16 28  1  0  0  0  0
M  END
>  <Column 1>
O=C1NC(=O)[C@]2(CCc3ccccc3C2)N1 ZINC000000000754

>  <Total Molweight>
216.239

>  <cLogP>
1.0042

>  <cLogS>
-2.699

>  <H-Acceptors>
4

>  <H-Donors>
2

>  <Total Surface Area>
156.37

>  <MMFF94 Energy>
-44.744

$$$$
Compound 4
Actelion Java MolfileCreator 1.0

 27 28  0  0  0  0  0  0  0  0999 V2000
    1.1739    0.0782   -1.4872 N   0  0  0  0  0  0  0  0  0  0  0  0
    0.5353    1.2042   -1.0824 N   0  0  0  0  0  0  0  0  0  0  0  0
    0.7568   -0.8465   -0.6260 C   0  0  0  0  0  0  0  0  0  0  0  0
   -0.2796    1.0113    0.0205 C   0  0  0  0  0  0  0  0  0  0  0  0
    0.7870    2.4104   -1.8308 C   0  0  0  0  0  0  0  0  0  0  0  0
   -0.1373   -0.3258    0.3334 C   0  0  0  0  0  0  0  0  0  0  0  0
    1.2170   -2.2603   -0.6590 C   0  0  0  0  0  0  0  0  0  0  0  0
   -1.0555    1.9225    0.6628 N   0  0  0  0  0  0  0  0  0  0  0  0
   -0.7583   -1.1582    1.3980 C   0  0  0  0  0  0  0  0  0  0  0  0
    0.3108   -3.1512    0.2099 C   0  0  0  0  0  0  0  0  0  0  0  0
   -1.2146    3.3143    0.3274 C   0  0  0  0  0  0  0  0  0  0  0  0
   -0.0151   -2.4965    1.5642 C   0  0  0  0  0  0  0  0  0  0  0  0
    1.4962    2.1999   -2.6369 H   0  0  0  0  0  0  0  0  0  0  0  0
    1.2227    3.1553   -1.1625 H   0  0  0  0  0  0  0  0  0  0  0  0
   -0.1518    2.7566   -2.2670 H   0  0  0  0  0  0  0  0  0  0  0  0
    2.2439   -2.3064   -0.2767 H   0  0  0  0  0  0  0  0  0  0  0  0
    1.2301   -2.6408   -1.6863 H   0  0  0  0  0  0  0  0  0  0  0  0
   -1.6001    1.6180    1.4669 H   0  0  0  0  0  0  0  0  0  0  0  0
   -0.7633   -0.6233    2.3543 H   0  0  0  0  0  0  0  0  0  0  0  0
   -1.8025   -1.3558    1.1266 H   0  0  0  0  0  0  0  0  0  0  0  0
   -0.6278   -3.3486   -0.3239 H   0  0  0  0  0  0  0  0  0  0  0  0
    0.7975   -4.1198    0.3700 H   0  0  0  0  0  0  0  0  0  0  0  0
   -1.9139    3.7795    1.0303 H   0  0  0  0  0  0  0  0  0  0  0  0
   -1.6348    3.4384   -0.6744 H   0  0  0  0  0  0  0  0  0  0  0  0
   -0.2682    3.8558    0.4094 H   0  0  0  0  0  0  0  0  0  0  0  0
   -0.6227   -3.1771    2.1714 H   0  0  0  0  0  0  0  0  0  0  0  0
    0.9212   -2.3285    2.1119 H   0  0  0  0  0  0  0  0  0  0  0  0
  1  2  1  0  0  0  0
  1  3  2  0  0  0  0
  2  4  1  0  0  0  0
  2  5  1  0  0  0  0
  3  6  1  0  0  0  0
  3  7  1  0  0  0  0
  4  8  1  0  0  0  0
  6  9  1  0  0  0  0
  7 10  1  0  0  0  0
  8 11  1  0  0  0  0
  9 12  1  0  0  0  0
  4  6  2  0  0  0  0
 10 12  1  0  0  0  0
  5 13  1  0  0  0  0
  5 14  1  0  0  0  0
  5 15  1  0  0  0  0
  7 16  1  0  0  0  0
  7 17  1  0  0  0  0
  8 18  1  0  0  0  0
  9 19  1  0  0  0  0
  9 20  1  0  0  0  0
 10 21  1  0  0  0  0
 10 22  1  0  0  0  0
 11 23  1  0  0  0  0
 11 24  1  0  0  0  0
 11 25  1  0  0  0  0
 12 26  1  0  0  0  0
 12 27  1  0  0  0  0
M  END
>  <Column 1>
CNc1c2c(nn1C)CCCC2 ZINC000000000757

>  <Total Molweight>
165.239

>  <cLogP>
0.9311

>  <cLogS>
-2.084

>  <H-Acceptors>
3

>  <H-Donors>
1

>  <Total Surface Area>
138.74

>  <MMFF94 Energy>
31.419

$$$$
Compound 5
Actelion Java MolfileCreator 1.0

 34 35  0  0  1  0  0  0  0  0999 V2000
   -3.0821   -3.3323    1.6651 Cl  0  0  0  0  0  0  0  0  0  0  0  0
   -2.1793   -1.9805    1.0837 C   0  0  0  0  0  0  0  0  0  0  0  0
   -2.6900   -1.0026    0.2313 C   0  0  0  0  0  0  0  0  0  0  0  0
   -0.8485   -1.8891    1.5022 C   0  0  0  0  0  0  0  0  0  0  0  0
   -4.3681   -1.0376   -0.3151 S   0  0  0  0  0  0  0  0  0  0  0  0
   -1.8717    0.0595   -0.1960 C   0  0  0  0  0  0  0  0  0  0  0  0
   -0.0348   -0.8343    1.0759 C   0  0  0  0  0  0  0  0  0  0  0  0
   -4.5638    0.0052   -1.2978 O   0  0  0  0  0  0  0  0  0  0  0  0
   -5.2421   -1.1738    0.8247 O   0  0  0  0  0  0  0  0  0  0  0  0
   -4.4609   -2.4655   -1.1919 N   0  0  0  0  0  0  0  0  0  0  0  0
   -0.5277    0.1585    0.2119 C   0  0  0  0  0  0  0  0  0  0  0  0
    0.3518    1.3262   -0.2426 C   0  0  0  0  0  0  0  0  0  0  0  0
   -0.2317    1.9770   -1.3623 O   0  0  0  0  0  0  0  0  0  0  0  0
    1.6689    0.8927   -0.6615 N   0  0  0  0  0  0  0  0  0  0  0  0
    0.5292    2.3742    0.8785 C   0  0  0  0  0  0  0  0  0  0  0  0
    2.7294    1.2037    0.1506 C   0  0  0  0  0  0  0  0  0  0  0  0
    1.8139   -0.0340   -1.7697 C   0  0  0  0  0  0  0  0  0  0  0  0
    2.2216    2.1933    1.5118 S   0  0  0  0  0  0  0  0  0  0  0  0
    3.9323    0.8061   -0.0599 N   0  0  0  0  0  0  0  0  0  0  0  0
    4.9989    1.1794    0.8554 C   0  0  0  0  0  0  0  0  0  0  0  0
   -0.4299   -2.6424    2.1675 H   0  0  0  0  0  0  0  0  0  0  0  0
   -2.2866    0.8225   -0.8562 H   0  0  0  0  0  0  0  0  0  0  0  0
    0.9965   -0.8043    1.4258 H   0  0  0  0  0  0  0  0  0  0  0  0
   -4.7122   -2.2622   -2.1597 H   0  0  0  0  0  0  0  0  0  0  0  0
   -5.0950   -3.1172   -0.7268 H   0  0  0  0  0  0  0  0  0  0  0  0
    0.5296    2.3844   -1.8094 H   0  0  0  0  0  0  0  0  0  0  0  0
    0.4268    3.3934    0.4895 H   0  0  0  0  0  0  0  0  0  0  0  0
   -0.1898    2.2574    1.6960 H   0  0  0  0  0  0  0  0  0  0  0  0
    0.9020   -0.1048   -2.3720 H   0  0  0  0  0  0  0  0  0  0  0  0
    2.0517   -1.0373   -1.4007 H   0  0  0  0  0  0  0  0  0  0  0  0
    2.6187    0.2907   -2.4376 H   0  0  0  0  0  0  0  0  0  0  0  0
    4.8290    0.7814    1.8612 H   0  0  0  0  0  0  0  0  0  0  0  0
    5.1390    2.2646    0.8965 H   0  0  0  0  0  0  0  0  0  0  0  0
    5.9386    0.7486    0.4949 H   0  0  0  0  0  0  0  0  0  0  0  0
  1  2  1  0  0  0  0
  2  3  2  0  0  0  0
  2  4  1  0  0  0  0
  3  5  1  0  0  0  0
  3  6  1  0  0  0  0
  4  7  2  0  0  0  0
  5  8  2  0  0  0  0
  5  9  2  0  0  0  0
  5 10  1  0  0  0  0
  6 11  2  0  0  0  0
 11 12  1  0  0  0  0
 12 13  1  0  0  0  0
 12 14  1  0  0  0  0
 12 15  1  0  0  0  0
 14 16  1  0  0  0  0
 14 17  1  0  0  0  0
 15 18  1  0  0  0  0
 16 19  2  0  0  0  0
 19 20  1  0  0  0  0
  7 11  1  0  0  0  0
 16 18  1  0  0  0  0
  4 21  1  0  0  0  0
  6 22  1  0  0  0  0
  7 23  1  0  0  0  0
 10 24  1  0  0  0  0
 10 25  1  0  0  0  0
 13 26  1  0  0  0  0
 15 27  1  0  0  0  0
 15 28  1  0  0  0  0
 17 29  1  0  0  0  0
 17 30  1  0  0  0  0
 17 31  1  0  0  0  0
 20 32  1  0  0  0  0
 20 33  1  0  0  0  0
 20 34  1  0  0  0  0
M  END
>  <Column 1>
C/N=C1\SC[C@](O)(c2ccc(Cl)c(S(N)(=O)=O)c2)N1C ZINC000000000785

>  <Total Molweight>
335.835

>  <cLogP>
0.8747

>  <cLogS>
-1.98

>  <H-Acceptors>
6

>  <H-Donors>
2

>  <Total Surface Area>
218.08

>  <MMFF94 Energy>
-129.84

$$$$
Compound 6
Actelion Java MolfileCreator 1.0

 15 16  0  0  0  0  0  0  0  0999 V2000
   -0.3144    0.6289   -1.8875 N   0  0  0  0  0  0  0  0  0  0  0  0
   -0.2151    0.9950   -0.5987 C   0  0  0  0  0  0  0  0  0  0  0  0
   -0.2003   -0.6807   -2.1967 C   0  0  0  0  0  0  0  0  0  0  0  0
   -0.3311    2.3237   -0.2872 N   0  0  0  0  0  0  0  0  0  0  0  0
   -0.0013   -0.0078    0.3235 C   0  0  0  0  0  0  0  0  0  0  0  0
    0.0064   -1.7120   -1.3687 N   0  0  0  0  0  0  0  0  0  0  0  0
    0.1523   -0.0566    1.6805 N   0  0  0  0  0  0  0  0  0  0  0  0
    0.1028   -1.3253   -0.0852 C   0  0  0  0  0  0  0  0  0  0  0  0
    0.3383   -1.3659    2.0304 C   0  0  0  0  0  0  0  0  0  0  0  0
    0.3133   -2.1579    0.9821 N   0  0  0  0  0  0  0  0  0  0  0  0
   -0.2876   -0.9268   -3.2506 H   0  0  0  0  0  0  0  0  0  0  0  0
   -0.2706    2.6889    0.6455 H   0  0  0  0  0  0  0  0  0  0  0  0
   -0.4868    2.9455   -1.0694 H   0  0  0  0  0  0  0  0  0  0  0  0
    0.1323    0.7305    2.3119 H   0  0  0  0  0  0  0  0  0  0  0  0
    0.4855   -1.6787    3.0560 H   0  0  0  0  0  0  0  0  0  0  0  0
  1  2  2  0  0  0  0
  1  3  1  0  0  0  0
  2  4  1  0  0  0  0
  2  5  1  0  0  0  0
  3  6  2  0  0  0  0
  5  7  1  0  0  0  0
  5  8  2  0  0  0  0
  7  9  1  0  0  0  0
  8 10  1  0  0  0  0
  6  8  1  0  0  0  0
  9 10  2  0  0  0  0
  3 11  1  0  0  0  0
  4 12  1  0  0  0  0
  4 13  1  0  0  0  0
  7 14  1  0  0  0  0
  9 15  1  0  0  0  0
M  END
>  <Column 1>
Nc1ncnc2nc[nH]c12 ZINC000000000882

>  <Total Molweight>
135.13

>  <cLogP>
-0.347

>  <cLogS>
-2.269

>  <H-Acceptors>
5

>  <H-Donors>
2

>  <Total Surface Area>
102.23

>  <MMFF94 Energy>
-83.259

$$$$
Compound 7
Actelion Java MolfileCreator 1.0

 33 33  0  0  0  0  0  0  0  0999 V2000
    0.8444    0.9212   -0.4605 N   0  0  0  0  0  0  0  0  0  0  0  0
   -0.3197    0.6994   -1.0577 C   0  0  0  0  0  0  0  0  0  0  0  0
    1.1306    0.1813    0.6032 C   0  0  0  0  0  0  0  0  0  0  0  0
   -1.1831   -0.2144   -0.6332 N   0  0  0  0  0  0  0  0  0  0  0  0
   -0.6472    1.4530   -2.1720 N   0  0  0  0  0  0  0  0  0  0  0  0
    0.3088   -0.7475    1.0754 N   0  0  0  0  0  0  0  0  0  0  0  0
    2.3387    0.3862    1.2476 N   0  0  0  0  0  0  0  0  0  0  0  0
   -0.8396   -0.9237    0.4344 C   0  0  0  0  0  0  0  0  0  0  0  0
   -1.9964    1.3689   -2.6854 C   0  0  0  0  0  0  0  0  0  0  0  0
    0.1941    2.5787   -2.5120 C   0  0  0  0  0  0  0  0  0  0  0  0
    3.1392    1.5265    0.8608 C   0  0  0  0  0  0  0  0  0  0  0  0
    2.5533   -0.2565    2.5249 C   0  0  0  0  0  0  0  0  0  0  0  0
   -1.7196   -1.8853    0.9028 N   0  0  0  0  0  0  0  0  0  0  0  0
   -2.8576   -2.2300    0.0795 C   0  0  0  0  0  0  0  0  0  0  0  0
   -1.2524   -2.8034    1.9179 C   0  0  0  0  0  0  0  0  0  0  0  0
   -2.2763    0.3343   -2.9141 H   0  0  0  0  0  0  0  0  0  0  0  0
   -2.7144    1.7819   -1.9682 H   0  0  0  0  0  0  0  0  0  0  0  0
   -2.0994    1.9336   -3.6186 H   0  0  0  0  0  0  0  0  0  0  0  0
    1.2410    2.2772   -2.6317 H   0  0  0  0  0  0  0  0  0  0  0  0
    0.1337    3.3583   -1.7443 H   0  0  0  0  0  0  0  0  0  0  0  0
   -0.1123    3.0271   -3.4634 H   0  0  0  0  0  0  0  0  0  0  0  0
    3.3518    1.5230   -0.2144 H   0  0  0  0  0  0  0  0  0  0  0  0
    2.6358    2.4643    1.1212 H   0  0  0  0  0  0  0  0  0  0  0  0
    4.1088    1.5191    1.3707 H   0  0  0  0  0  0  0  0  0  0  0  0
    2.4146   -1.3416    2.4580 H   0  0  0  0  0  0  0  0  0  0  0  0
    1.8714    0.1435    3.2837 H   0  0  0  0  0  0  0  0  0  0  0  0
    3.5764   -0.0941    2.8815 H   0  0  0  0  0  0  0  0  0  0  0  0
   -3.4585   -1.3472   -0.1674 H   0  0  0  0  0  0  0  0  0  0  0  0
   -2.5364   -2.7136   -0.8497 H   0  0  0  0  0  0  0  0  0  0  0  0
   -3.5247   -2.9251    0.6011 H   0  0  0  0  0  0  0  0  0  0  0  0
   -0.8702   -2.2719    2.7969 H   0  0  0  0  0  0  0  0  0  0  0  0
   -0.4637   -3.4541    1.5241 H   0  0  0  0  0  0  0  0  0  0  0  0
   -2.0659   -3.4463    2.2718 H   0  0  0  0  0  0  0  0  0  0  0  0
  1  2  2  0  0  0  0
  1  3  1  0  0  0  0
  2  4  1  0  0  0  0
  2  5  1  0  0  0  0
  3  6  2  0  0  0  0
  3  7  1  0  0  0  0
  4  8  2  0  0  0  0
  5  9  1  0  0  0  0
  5 10  1  0  0  0  0
  7 11  1  0  0  0  0
  7 12  1  0  0  0  0
  8 13  1  0  0  0  0
 13 14  1  0  0  0  0
 13 15  1  0  0  0  0
  6  8  1  0  0  0  0
  9 16  1  0  0  0  0
  9 17  1  0  0  0  0
  9 18  1  0  0  0  0
 10 19  1  0  0  0  0
 10 20  1  0  0  0  0
 10 21  1  0  0  0  0
 11 22  1  0  0  0  0
 11 23  1  0  0  0  0
 11 24  1  0  0  0  0
 12 25  1  0  0  0  0
 12 26  1  0  0  0  0
 12 27  1  0  0  0  0
 14 28  1  0  0  0  0
 14 29  1  0  0  0  0
 14 30  1  0  0  0  0
 15 31  1  0  0  0  0
 15 32  1  0  0  0  0
 15 33  1  0  0  0  0
M  END
>  <Column 1>
CN(C)c1nc(N(C)C)nc(N(C)C)n1 ZINC000000000905

>  <Total Molweight>
210.284

>  <cLogP>
0.7704

>  <cLogS>
-1.91

>  <H-Acceptors>
6

>  <H-Donors>
0

>  <Total Surface Area>
174

>  <MMFF94 Energy>
-240.97

$$$$
Compound 8
Actelion Java MolfileCreator 1.0

 18 18  0  0  0  0  0  0  0  0999 V2000
    0.7749    1.0850    0.6974 N   0  0  0  0  0  0  0  0  0  0  0  0
    0.0344    0.2742   -0.0979 C   0  0  0  0  0  0  0  0  0  0  0  0
    1.1963    2.2614    0.1753 C   0  0  0  0  0  0  0  0  0  0  0  0
   -0.4097   -0.9318    0.4191 N   0  0  0  0  0  0  0  0  0  0  0  0
   -0.2489    0.7055   -1.4015 C   0  0  0  0  0  0  0  0  0  0  0  0
    0.9016    2.6525   -1.1149 C   0  0  0  0  0  0  0  0  0  0  0  0
   -1.0148   -1.9501   -0.4156 C   0  0  0  0  0  0  0  0  0  0  0  0
    0.0146   -1.2770    1.7657 C   0  0  0  0  0  0  0  0  0  0  0  0
    0.1697    1.8835   -1.9412 N   0  0  0  0  0  0  0  0  0  0  0  0
    1.7853    2.8863    0.8363 H   0  0  0  0  0  0  0  0  0  0  0  0
   -0.8421    0.1043   -2.0800 H   0  0  0  0  0  0  0  0  0  0  0  0
    1.2471    3.5971   -1.5173 H   0  0  0  0  0  0  0  0  0  0  0  0
   -1.9266   -1.5764   -0.8941 H   0  0  0  0  0  0  0  0  0  0  0  0
   -1.3056   -2.8302    0.1682 H   0  0  0  0  0  0  0  0  0  0  0  0
   -0.3156   -2.2868   -1.1885 H   0  0  0  0  0  0  0  0  0  0  0  0
   -0.2498   -0.4908    2.4824 H   0  0  0  0  0  0  0  0  0  0  0  0
    1.0965   -1.4468    1.8019 H   0  0  0  0  0  0  0  0  0  0  0  0
   -0.4736   -2.1931    2.1157 H   0  0  0  0  0  0  0  0  0  0  0  0
  1  2  2  0  0  0  0
  1  3  1  0  0  0  0
  2  4  1  0  0  0  0
  2  5  1  0  0  0  0
  3  6  2  0  0  0  0
  4  7  1  0  0  0  0
  4  8  1  0  0  0  0
  5  9  2  0  0  0  0
  6  9  1  0  0  0  0
  3 10  1  0  0  0  0
  5 11  1  0  0  0  0
  6 12  1  0  0  0  0
  7 13  1  0  0  0  0
  7 14  1  0  0  0  0
  7 15  1  0  0  0  0
  8 16  1  0  0  0  0
  8 17  1  0  0  0  0
  8 18  1  0  0  0  0
M  END
>  <Column 1>
CN(C)c1cnccn1 ZINC000000000936

>  <Total Molweight>
123.158

>  <cLogP>
-0.0944

>  <cLogS>
-0.587

>  <H-Acceptors>
3

>  <H-Donors>
0

>  <Total Surface Area>
105.6

>  <MMFF94 Energy>
45.228

$$$$
Compound 9
Actelion Java MolfileCreator 1.0

 34 36  0  0  0  0  0  0  0  0999 V2000
    0.9544    3.2639   -0.4771 N   0  0  0  0  0  0  0  0  0  0  0  0
    1.1531    2.3595   -1.3902 C   0  0  0  0  0  0  0  0  0  0  0  0
    0.3397    2.8542    0.6755 C   0  0  0  0  0  0  0  0  0  0  0  0
    0.7572    0.9424   -1.2491 C   0  0  0  0  0  0  0  0  0  0  0  0
    1.8274    2.7728   -2.6734 C   0  0  0  0  0  0  0  0  0  0  0  0
    0.0334    3.5758    1.7322 N   0  0  0  0  0  0  0  0  0  0  0  0
   -0.0693    1.5164    0.8872 N   0  0  0  0  0  0  0  0  0  0  0  0
    0.1555    0.5544   -0.1140 C   0  0  0  0  0  0  0  0  0  0  0  0
    0.9332   -0.1659   -2.2181 C   0  0  0  0  0  0  0  0  0  0  0  0
   -0.5515    2.6816    2.5661 C   0  0  0  0  0  0  0  0  0  0  0  0
   -0.6424    1.4336    2.1175 N   0  0  0  0  0  0  0  0  0  0  0  0
   -0.1423   -0.8220   -0.1698 N   0  0  0  0  0  0  0  0  0  0  0  0
    0.3149   -1.3647   -1.4689 C   0  0  0  0  0  0  0  0  0  0  0  0
   -0.7971   -1.7054    0.8252 C   0  0  0  0  0  0  0  0  0  0  0  0
   -2.2375   -1.2392    1.0895 C   0  0  0  0  0  0  0  0  0  0  0  0
    0.0381   -1.7729    2.1133 C   0  0  0  0  0  0  0  0  0  0  0  0
   -0.9084   -3.1645    0.3118 C   0  0  0  0  0  0  0  0  0  0  0  0
    2.0687    3.8396   -2.6530 H   0  0  0  0  0  0  0  0  0  0  0  0
    1.1610    2.5801   -3.5188 H   0  0  0  0  0  0  0  0  0  0  0  0
    2.7536    2.2060   -2.8024 H   0  0  0  0  0  0  0  0  0  0  0  0
    1.9893   -0.3471   -2.4406 H   0  0  0  0  0  0  0  0  0  0  0  0
    0.4012    0.0254   -3.1552 H   0  0  0  0  0  0  0  0  0  0  0  0
   -0.9289    2.9502    3.5447 H   0  0  0  0  0  0  0  0  0  0  0  0
   -0.5236   -1.7696   -2.0455 H   0  0  0  0  0  0  0  0  0  0  0  0
    1.0716   -2.1438   -1.3277 H   0  0  0  0  0  0  0  0  0  0  0  0
   -2.7533   -1.9214    1.7753 H   0  0  0  0  0  0  0  0  0  0  0  0
   -2.2960   -0.2458    1.5322 H   0  0  0  0  0  0  0  0  0  0  0  0
   -2.8130   -1.2061    0.1567 H   0  0  0  0  0  0  0  0  0  0  0  0
    1.0577   -2.1139    1.8983 H   0  0  0  0  0  0  0  0  0  0  0  0
   -0.4026   -2.4728    2.8329 H   0  0  0  0  0  0  0  0  0  0  0  0
    0.1263   -0.8139    2.6221 H   0  0  0  0  0  0  0  0  0  0  0  0
   -1.3942   -3.8073    1.0562 H   0  0  0  0  0  0  0  0  0  0  0  0
    0.0756   -3.6008    0.1078 H   0  0  0  0  0  0  0  0  0  0  0  0
   -1.5063   -3.2298   -0.6040 H   0  0  0  0  0  0  0  0  0  0  0  0
  1  2  2  0  0  0  0
  1  3  1  0  0  0  0
  2  4  1  0  0  0  0
  2  5  1  0  0  0  0
  3  6  2  0  0  0  0
  3  7  1  0  0  0  0
  4  8  2  0  0  0  0
  4  9  1  0  0  0  0
  6 10  1  0  0  0  0
  7 11  1  0  0  0  0
  8 12  1  0  0  0  0
  9 13  1  0  0  0  0
 12 14  1  0  0  0  0
 14 15  1  0  0  0  0
 14 16  1  0  0  0  0
 14 17  1  0  0  0  0
  7  8  1  0  0  0  0
 10 11  2  0  0  0  0
 12 13  1  0  0  0  0
  5 18  1  0  0  0  0
  5 19  1  0  0  0  0
  5 20  1  0  0  0  0
  9 21  1  0  0  0  0
  9 22  1  0  0  0  0
 10 23  1  0  0  0  0
 13 24  1  0  0  0  0
 13 25  1  0  0  0  0
 15 26  1  0  0  0  0
 15 27  1  0  0  0  0
 15 28  1  0  0  0  0
 16 29  1  0  0  0  0
 16 30  1  0  0  0  0
 16 31  1  0  0  0  0
 17 32  1  0  0  0  0
 17 33  1  0  0  0  0
 17 34  1  0  0  0  0
M  END
>  <Column 1>
Cc1nc2ncnn2c2c1CCN2C(C)(C)C ZINC000000001071

>  <Total Molweight>
231.302

>  <cLogP>
1.1886

>  <cLogS>
-1.397

>  <H-Acceptors>
5

>  <H-Donors>
0

>  <Total Surface Area>
178.56

>  <MMFF94 Energy>
113.62

$$$$
Compound 10
Actelion Java MolfileCreator 1.0

 20 21  0  0  0  0  0  0  0  0999 V2000
   -2.1851    0.8580   -0.4679 N   0  0  0  0  0  0  0  0  0  0  0  0
   -1.4239    1.9946   -0.2986 C   0  0  0  0  0  0  0  0  0  0  0  0
   -1.6056   -0.2998   -0.3427 C   0  0  0  0  0  0  0  0  0  0  0  0
   -0.1463    2.0163   -0.0180 N   0  0  0  0  0  0  0  0  0  0  0  0
   -2.0719    3.1681   -0.4387 N   0  0  0  0  0  0  0  0  0  0  0  0
   -0.2396   -0.3362   -0.0428 N   0  0  0  0  0  0  0  0  0  0  0  0
   -2.2790   -1.4793   -0.4927 N   0  0  0  0  0  0  0  0  0  0  0  0
    0.4716    0.8157    0.1155 C   0  0  0  0  0  0  0  0  0  0  0  0
    0.4780   -1.4739    0.1127 N   0  0  0  0  0  0  0  0  0  0  0  0
    1.7544    0.4093    0.3964 C   0  0  0  0  0  0  0  0  0  0  0  0
    1.7092   -1.0105    0.3839 C   0  0  0  0  0  0  0  0  0  0  0  0
    2.8248   -1.9565    0.6272 C   0  0  0  0  0  0  0  0  0  0  0  0
   -3.0556    3.1703   -0.6546 H   0  0  0  0  0  0  0  0  0  0  0  0
   -1.5603    4.0287   -0.3247 H   0  0  0  0  0  0  0  0  0  0  0  0
   -3.2643   -1.4785   -0.7090 H   0  0  0  0  0  0  0  0  0  0  0  0
   -1.7759   -2.3542   -0.3838 H   0  0  0  0  0  0  0  0  0  0  0  0
    2.6035    1.0500    0.5841 H   0  0  0  0  0  0  0  0  0  0  0  0
    3.7577   -1.4220    0.8331 H   0  0  0  0  0  0  0  0  0  0  0  0
    2.6042   -2.5969    1.4873 H   0  0  0  0  0  0  0  0  0  0  0  0
    2.9853   -2.5937   -0.2484 H   0  0  0  0  0  0  0  0  0  0  0  0
  1  2  1  0  0  0  0
  1  3  2  0  0  0  0
  2  4  2  0  0  0  0
  2  5  1  0  0  0  0
  3  6  1  0  0  0  0
  3  7  1  0  0  0  0
  4  8  1  0  0  0  0
  6  9  1  0  0  0  0
  8 10  2  0  0  0  0
  9 11  2  0  0  0  0
 11 12  1  0  0  0  0
  6  8  1  0  0  0  0
 10 11  1  0  0  0  0
  5 13  1  0  0  0  0
  5 14  1  0  0  0  0
  7 15  1  0  0  0  0
  7 16  1  0  0  0  0
 10 17  1  0  0  0  0
 12 18  1  0  0  0  0
 12 19  1  0  0  0  0
 12 20  1  0  0  0  0
M  END
>  <Column 1>
Cc1cc2nc(N)nc(N)n2n1 ZINC000000001242

>  <Total Molweight>
164.172

>  <cLogP>
-0.7791

>  <cLogS>
-2.877

>  <H-Acceptors>
6

>  <H-Donors>
2

>  <Total Surface Area>
124.09

>  <MMFF94 Energy>
-29.084

$$$$
Compound 11
Actelion Java MolfileCreator 1.0

 42 44  0  0  0  0  0  0  0  0999 V2000
    2.2917    0.5528   -6.0939 O   0  0  0  0  0  0  0  0  0  0  0  0
    1.8981    0.5571   -4.9237 C   0  0  0  0  0  0  0  0  0  0  0  0
    2.0739    1.6920   -4.1044 N   0  0  0  0  0  0  0  0  0  0  0  0
    1.2651   -0.5475   -4.3538 N   0  0  0  0  0  0  0  0  0  0  0  0
    1.6687    1.8049   -2.7718 C   0  0  0  0  0  0  0  0  0  0  0  0
    2.7338    2.8283   -4.7169 C   0  0  0  0  0  0  0  0  0  0  0  0
    0.8488   -0.4837   -3.0463 C   0  0  0  0  0  0  0  0  0  0  0  0
    1.0451   -1.7552   -5.1283 C   0  0  0  0  0  0  0  0  0  0  0  0
    1.8322    2.8034   -2.0774 O   0  0  0  0  0  0  0  0  0  0  0  0
    1.0354    0.6290   -2.2852 C   0  0  0  0  0  0  0  0  0  0  0  0
    0.2214   -1.4716   -2.3552 N   0  0  0  0  0  0  0  0  0  0  0  0
    0.4995    0.3231   -1.0601 N   0  0  0  0  0  0  0  0  0  0  0  0
    0.0206   -0.9593   -1.1562 C   0  0  0  0  0  0  0  0  0  0  0  0
    0.4716    1.2248    0.0867 C   0  0  0  0  0  0  0  0  0  0  0  0
   -0.1748    0.6468    1.3180 C   0  0  0  0  0  0  0  0  0  0  0  0
    0.5769   -0.0629    2.2560 C   0  0  0  0  0  0  0  0  0  0  0  0
   -1.5465    0.7838    1.5387 C   0  0  0  0  0  0  0  0  0  0  0  0
   -0.0360   -0.6179    3.3888 C   0  0  0  0  0  0  0  0  0  0  0  0
   -2.1455    0.2233    2.6762 C   0  0  0  0  0  0  0  0  0  0  0  0
   -1.4137   -0.4948    3.6372 C   0  0  0  0  0  0  0  0  0  0  0  0
   -2.0147   -1.0496    4.7612 N   0  0  0  0  0  0  0  0  0  0  0  0
   -1.2363   -1.7941    5.7429 C   0  0  0  0  0  0  0  0  0  0  0  0
   -3.4465   -0.9128    4.9962 C   0  0  0  0  0  0  0  0  0  0  0  0
    2.1550    3.1472   -5.5899 H   0  0  0  0  0  0  0  0  0  0  0  0
    3.7273    2.5202   -5.0587 H   0  0  0  0  0  0  0  0  0  0  0  0
    2.8396    3.6735   -4.0325 H   0  0  0  0  0  0  0  0  0  0  0  0
   -0.0294   -1.9588   -5.1751 H   0  0  0  0  0  0  0  0  0  0  0  0
    1.5558   -2.5909   -4.6397 H   0  0  0  0  0  0  0  0  0  0  0  0
    1.4271   -1.6609   -6.1480 H   0  0  0  0  0  0  0  0  0  0  0  0
   -0.4628   -1.4772   -0.3364 H   0  0  0  0  0  0  0  0  0  0  0  0
    1.5100    1.5028    0.3030 H   0  0  0  0  0  0  0  0  0  0  0  0
   -0.0618    2.1297   -0.2280 H   0  0  0  0  0  0  0  0  0  0  0  0
    1.6479   -0.1985    2.1203 H   0  0  0  0  0  0  0  0  0  0  0  0
   -2.1709    1.3243    0.8301 H   0  0  0  0  0  0  0  0  0  0  0  0
    0.6056   -1.1579    4.0792 H   0  0  0  0  0  0  0  0  0  0  0  0
   -3.2165    0.3662    2.7879 H   0  0  0  0  0  0  0  0  0  0  0  0
   -0.7666   -2.6710    5.2841 H   0  0  0  0  0  0  0  0  0  0  0  0
   -1.8585   -2.1626    6.5657 H   0  0  0  0  0  0  0  0  0  0  0  0
   -0.4637   -1.1595    6.1906 H   0  0  0  0  0  0  0  0  0  0  0  0
   -3.7278    0.1421    5.0879 H   0  0  0  0  0  0  0  0  0  0  0  0
   -3.7588   -1.4048    5.9237 H   0  0  0  0  0  0  0  0  0  0  0  0
   -4.0206   -1.3734    4.1848 H   0  0  0  0  0  0  0  0  0  0  0  0
  1  2  2  0  0  0  0
  2  3  1  0  0  0  0
  2  4  1  0  0  0  0
  3  5  1  0  0  0  0
  3  6  1  0  0  0  0
  4  7  1  0  0  0  0
  4  8  1  0  0  0  0
  5  9  2  0  0  0  0
  5 10  1  0  0  0  0
  7 11  1  0  0  0  0
 10 12  1  0  0  0  0
 11 13  2  0  0  0  0
 12 14  1  0  0  0  0
 14 15  1  0  0  0  0
 15 16  2  0  0  0  0
 15 17  1  0  0  0  0
 16 18  1  0  0  0  0
 17 19  2  0  0  0  0
 18 20  2  0  0  0  0
 20 21  1  0  0  0  0
 21 22  1  0  0  0  0
 21 23  1  0  0  0  0
  7 10  2  0  0  0  0
 12 13  1  0  0  0  0
 19 20  1  0  0  0  0
  6 24  1  0  0  0  0
  6 25  1  0  0  0  0
  6 26  1  0  0  0  0
  8 27  1  0  0  0  0
  8 28  1  0  0  0  0
  8 29  1  0  0  0  0
 13 30  1  0  0  0  0
 14 31  1  0  0  0  0
 14 32  1  0  0  0  0
 16 33  1  0  0  0  0
 17 34  1  0  0  0  0
 18 35  1  0  0  0  0
 19 36  1  0  0  0  0
 22 37  1  0  0  0  0
 22 38  1  0  0  0  0
 22 39  1  0  0  0  0
 23 40  1  0  0  0  0
 23 41  1  0  0  0  0
 23 42  1  0  0  0  0
M  END
>  <Column 1>
CN(C)c1ccc(Cn2cnc3c2c(=O)n(C)c(=O)n3C)cc1 ZINC000000001301

>  <Total Molweight>
313.36

>  <cLogP>
1.0755

>  <cLogS>
-1.97

>  <H-Acceptors>
7

>  <H-Donors>
0

>  <Total Surface Area>
236.68

>  <MMFF94 Energy>
-92.158

$$$$
Compound 12
Actelion Java MolfileCreator 1.0

 34 35  0  0  0  0  0  0  0  0999 V2000
    2.2989   -0.7130   -2.2989 O   0  0  0  0  0  0  0  0  0  0  0  0
    1.1194   -0.9037   -2.0005 C   0  0  0  0  0  0  0  0  0  0  0  0
    0.2461   -1.6099   -2.8183 N   0  0  0  0  0  0  0  0  0  0  0  0
    0.5517   -0.3594   -0.7100 C   0  0  0  0  0  0  0  0  0  0  0  0
   -1.0715   -1.8271   -2.5266 N   0  0  0  0  0  0  0  0  0  0  0  0
    0.7039   -2.1727   -4.0768 C   0  0  0  0  0  0  0  0  0  0  0  0
    1.3467    0.4118    0.1420 O   0  0  0  0  0  0  0  0  0  0  0  0
   -0.7577   -0.5121   -0.4287 C   0  0  0  0  0  0  0  0  0  0  0  0
   -1.5133   -1.3181   -1.4264 C   0  0  0  0  0  0  0  0  0  0  0  0
    2.6582   -0.1046    0.3800 C   0  0  0  0  0  0  0  0  0  0  0  0
   -1.4726   -0.0423    0.6823 N   0  0  0  0  0  0  0  0  0  0  0  0
    3.1325    0.4197    1.7246 C   0  0  0  0  0  0  0  0  0  0  0  0
   -2.7955    0.6078    0.5759 C   0  0  0  0  0  0  0  0  0  0  0  0
   -0.8981    0.1102    2.0331 C   0  0  0  0  0  0  0  0  0  0  0  0
   -2.6862    2.0778    1.0221 C   0  0  0  0  0  0  0  0  0  0  0  0
   -0.8376    1.5960    2.4116 C   0  0  0  0  0  0  0  0  0  0  0  0
   -2.1467    2.1930    2.3500 O   0  0  0  0  0  0  0  0  0  0  0  0
    0.5330   -3.2533   -4.0606 H   0  0  0  0  0  0  0  0  0  0  0  0
    1.7664   -1.9834   -4.2481 H   0  0  0  0  0  0  0  0  0  0  0  0
    0.1264   -1.7247   -4.8910 H   0  0  0  0  0  0  0  0  0  0  0  0
   -2.5684   -1.5135   -1.1742 H   0  0  0  0  0  0  0  0  0  0  0  0
    3.3418    0.2576   -0.3938 H   0  0  0  0  0  0  0  0  0  0  0  0
    2.6582   -1.2009    0.4010 H   0  0  0  0  0  0  0  0  0  0  0  0
    4.1487    0.0773    1.9392 H   0  0  0  0  0  0  0  0  0  0  0  0
    3.1169    1.5147    1.7394 H   0  0  0  0  0  0  0  0  0  0  0  0
    2.4708    0.0809    2.5282 H   0  0  0  0  0  0  0  0  0  0  0  0
   -3.4968    0.0734    1.2276 H   0  0  0  0  0  0  0  0  0  0  0  0
   -3.1905    0.5735   -0.4447 H   0  0  0  0  0  0  0  0  0  0  0  0
   -1.5602   -0.4103    2.7368 H   0  0  0  0  0  0  0  0  0  0  0  0
    0.0826   -0.3638    2.1254 H   0  0  0  0  0  0  0  0  0  0  0  0
   -3.6793    2.5381    1.0276 H   0  0  0  0  0  0  0  0  0  0  0  0
   -2.0545    2.6508    0.3328 H   0  0  0  0  0  0  0  0  0  0  0  0
   -0.4746    1.7044    3.4384 H   0  0  0  0  0  0  0  0  0  0  0  0
   -0.1610    2.1533    1.7537 H   0  0  0  0  0  0  0  0  0  0  0  0
  1  2  2  0  0  0  0
  2  3  1  0  0  0  0
  2  4  1  0  0  0  0
  3  5  1  0  0  0  0
  3  6  1  0  0  0  0
  4  7  1  0  0  0  0
  4  8  2  0  0  0  0
  5  9  2  0  0  0  0
  7 10  1  0  0  0  0
  8 11  1  0  0  0  0
 10 12  1  0  0  0  0
 11 13  1  0  0  0  0
 11 14  1  0  0  0  0
 13 15  1  0  0  0  0
 14 16  1  0  0  0  0
 15 17  1  0  0  0  0
  8  9  1  0  0  0  0
 16 17  1  0  0  0  0
  6 18  1  0  0  0  0
  6 19  1  0  0  0  0
  6 20  1  0  0  0  0
  9 21  1  0  0  0  0
 10 22  1  0  0  0  0
 10 23  1  0  0  0  0
 12 24  1  0  0  0  0
 12 25  1  0  0  0  0
 12 26  1  0  0  0  0
 13 27  1  0  0  0  0
 13 28  1  0  0  0  0
 14 29  1  0  0  0  0
 14 30  1  0  0  0  0
 15 31  1  0  0  0  0
 15 32  1  0  0  0  0
 16 33  1  0  0  0  0
 16 34  1  0  0  0  0
M  END
>  <Column 1>
CCOc1c(N2CCOCC2)cnn(C)c1=O ZINC000000001349

>  <Total Molweight>
239.274

>  <cLogP>
-0.3021

>  <cLogS>
-0.643

>  <H-Acceptors>
6

>  <H-Donors>
0

>  <Total Surface Area>
185.85

>  <MMFF94 Energy>
164.56

$$$$
Compound 13
Actelion Java MolfileCreator 1.0

 27 29  0  0  0  0  0  0  0  0999 V2000
   -1.9800   -2.7728   -0.7124 O   0  0  0  0  0  0  0  0  0  0  0  0
   -1.0997   -1.8222   -1.1586 C   0  0  0  0  0  0  0  0  0  0  0  0
   -2.3559   -3.5138   -1.7864 C   0  0  0  0  0  0  0  0  0  0  0  0
   -0.5576   -0.8839   -0.1790 C   0  0  0  0  0  0  0  0  0  0  0  0
   -0.9364   -1.9630   -2.5252 C   0  0  0  0  0  0  0  0  0  0  0  0
   -1.7417   -3.0555   -2.9266 C   0  0  0  0  0  0  0  0  0  0  0  0
    0.1119    0.1562   -0.7353 N   0  0  0  0  0  0  0  0  0  0  0  0
   -0.7006   -0.9946    1.2108 C   0  0  0  0  0  0  0  0  0  0  0  0
    0.6220    1.0788    0.1324 C   0  0  0  0  0  0  0  0  0  0  0  0
   -0.1707   -0.0690    2.0415 N   0  0  0  0  0  0  0  0  0  0  0  0
   -1.2999   -2.0616    1.8479 N   0  0  0  0  0  0  0  0  0  0  0  0
    0.4861    0.9729    1.5201 C   0  0  0  0  0  0  0  0  0  0  0  0
    1.3327    2.2015   -0.2768 C   0  0  0  0  0  0  0  0  0  0  0  0
    0.9864    1.8643    2.3692 N   0  0  0  0  0  0  0  0  0  0  0  0
    1.8370    3.1155    0.5655 N   0  0  0  0  0  0  0  0  0  0  0  0
    1.5100    2.4716   -1.6285 N   0  0  0  0  0  0  0  0  0  0  0  0
    1.6416    2.9021    1.8630 C   0  0  0  0  0  0  0  0  0  0  0  0
    2.1503    3.8157    2.7370 N   0  0  0  0  0  0  0  0  0  0  0  0
   -3.0536   -4.3145   -1.5822 H   0  0  0  0  0  0  0  0  0  0  0  0
   -0.3073   -1.3425   -3.1486 H   0  0  0  0  0  0  0  0  0  0  0  0
   -1.8620   -3.4565   -3.9232 H   0  0  0  0  0  0  0  0  0  0  0  0
   -2.0043   -2.5879    1.3456 H   0  0  0  0  0  0  0  0  0  0  0  0
   -1.3422   -1.9977    2.8556 H   0  0  0  0  0  0  0  0  0  0  0  0
    1.4534    1.6948   -2.2735 H   0  0  0  0  0  0  0  0  0  0  0  0
    2.0572    3.2901   -1.8511 H   0  0  0  0  0  0  0  0  0  0  0  0
    2.0008    3.6652    3.7199 H   0  0  0  0  0  0  0  0  0  0  0  0
    2.6398    4.6106    2.3653 H   0  0  0  0  0  0  0  0  0  0  0  0
  1  2  1  0  0  0  0
  1  3  1  0  0  0  0
  2  4  1  0  0  0  0
  2  5  2  0  0  0  0
  3  6  2  0  0  0  0
  4  7  2  0  0  0  0
  4  8  1  0  0  0  0
  7  9  1  0  0  0  0
  8 10  2  0  0  0  0
  8 11  1  0  0  0  0
  9 12  1  0  0  0  0
  9 13  2  0  0  0  0
 12 14  2  0  0  0  0
 13 15  1  0  0  0  0
 13 16  1  0  0  0  0
 14 17  1  0  0  0  0
 17 18  1  0  0  0  0
  5  6  1  0  0  0  0
 10 12  1  0  0  0  0
 15 17  2  0  0  0  0
  3 19  1  0  0  0  0
  5 20  1  0  0  0  0
  6 21  1  0  0  0  0
 11 22  1  0  0  0  0
 11 23  1  0  0  0  0
 16 24  1  0  0  0  0
 16 25  1  0  0  0  0
 18 26  1  0  0  0  0
 18 27  1  0  0  0  0
M  END
>  <Column 1>
Nc1nc(N)c2nc(-c3ccco3)c(N)nc2n1 ZINC000000001499

>  <Total Molweight>
243.229

>  <cLogP>
-0.1668

>  <cLogS>
-3.94

>  <H-Acceptors>
8

>  <H-Donors>
3

>  <Total Surface Area>
177.91

>  <MMFF94 Energy>
-21.97

$$$$
Compound 14
Actelion Java MolfileCreator 1.0

 30 31  0  0  0  0  0  0  0  0999 V2000
   -1.0986   -4.0064    1.4126 O   0  0  0  0  0  0  0  0  0  0  0  0
   -0.9387   -2.7664    1.0786 N   0  0  0  0  0  0  0  0  0  0  0  0
   -0.9664   -2.3589   -0.2585 C   0  0  0  0  0  0  0  0  0  0  0  0
   -0.7572   -1.7957    2.0680 C   0  0  0  0  0  0  0  0  0  0  0  0
   -0.8041   -1.0542   -0.5944 N   0  0  0  0  0  0  0  0  0  0  0  0
   -1.1636   -3.2854   -1.2649 N   0  0  0  0  0  0  0  0  0  0  0  0
   -0.7053   -2.1867    3.4149 N   0  0  0  0  0  0  0  0  0  0  0  0
   -0.5723   -0.4677    1.6958 C   0  0  0  0  0  0  0  0  0  0  0  0
   -0.5883   -0.1159    0.3531 C   0  0  0  0  0  0  0  0  0  0  0  0
   -0.4186    1.2015   -0.0486 N   0  0  0  0  0  0  0  0  0  0  0  0
   -0.6903    1.5342   -1.4516 C   0  0  0  0  0  0  0  0  0  0  0  0
    0.5767    2.0627    0.5934 C   0  0  0  0  0  0  0  0  0  0  0  0
    0.5982    1.4269   -2.2700 C   0  0  0  0  0  0  0  0  0  0  0  0
    1.9019    1.9588   -0.1664 C   0  0  0  0  0  0  0  0  0  0  0  0
    1.7151    2.2725   -1.6530 C   0  0  0  0  0  0  0  0  0  0  0  0
   -1.1794   -2.9817   -2.2228 H   0  0  0  0  0  0  0  0  0  0  0  0
   -1.2784   -4.2480   -0.9697 H   0  0  0  0  0  0  0  0  0  0  0  0
   -0.8376   -3.1981    3.5058 H   0  0  0  0  0  0  0  0  0  0  0  0
   -1.1440   -1.6029    4.1130 H   0  0  0  0  0  0  0  0  0  0  0  0
   -0.4412    0.2787    2.4689 H   0  0  0  0  0  0  0  0  0  0  0  0
   -1.4866    0.9190   -1.8874 H   0  0  0  0  0  0  0  0  0  0  0  0
   -1.0583    2.5675   -1.4983 H   0  0  0  0  0  0  0  0  0  0  0  0
    0.2198    3.1001    0.5597 H   0  0  0  0  0  0  0  0  0  0  0  0
    0.7375    1.8348    1.6510 H   0  0  0  0  0  0  0  0  0  0  0  0
    0.4124    1.7545   -3.2988 H   0  0  0  0  0  0  0  0  0  0  0  0
    0.9250    0.3813   -2.3193 H   0  0  0  0  0  0  0  0  0  0  0  0
    2.3105    0.9463   -0.0596 H   0  0  0  0  0  0  0  0  0  0  0  0
    2.6331    2.6500    0.2672 H   0  0  0  0  0  0  0  0  0  0  0  0
    2.6535    2.0982   -2.1907 H   0  0  0  0  0  0  0  0  0  0  0  0
    1.4708    3.3356   -1.7702 H   0  0  0  0  0  0  0  0  0  0  0  0
  1  2  1  0  0  0  0
  2  3  2  0  0  0  0
  2  4  1  0  0  0  0
  3  5  1  0  0  0  0
  3  6  1  0  0  0  0
  4  7  1  0  0  0  0
  4  8  2  0  0  0  0
  5  9  2  0  0  0  0
  9 10  1  0  0  0  0
 10 11  1  0  0  0  0
 10 12  1  0  0  0  0
 11 13  1  0  0  0  0
 12 14  1  0  0  0  0
 13 15  1  0  0  0  0
  8  9  1  0  0  0  0
 14 15  1  0  0  0  0
  6 16  1  0  0  0  0
  6 17  1  0  0  0  0
  7 18  1  0  0  0  0
  7 19  1  0  0  0  0
  8 20  1  0  0  0  0
 11 21  1  0  0  0  0
 11 22  1  0  0  0  0
 12 23  1  0  0  0  0
 12 24  1  0  0  0  0
 13 25  1  0  0  0  0
 13 26  1  0  0  0  0
 14 27  1  0  0  0  0
 14 28  1  0  0  0  0
 15 29  1  0  0  0  0
 15 30  1  0  0  0  0
M  CHG  2   1  -1   2   1
M  END
>  <Column 1>
Nc1cc(N2CCCCC2)nc(N)[n+]1[O-] ZINC000000001735

>  <Total Molweight>
209.252

>  <cLogP>
0.1716

>  <cLogS>
-5.461

>  <H-Acceptors>
5

>  <H-Donors>
2

>  <Total Surface Area>
156.71

>  <MMFF94 Energy>
49.563

$$$$
Compound 15
Actelion Java MolfileCreator 1.0

 29 31  0  0  0  0  0  0  0  0999 V2000
   -0.5630    1.6898   -1.1263 O   0  0  0  0  0  0  0  0  0  0  0  0
   -0.3833    1.0665   -0.0814 C   0  0  0  0  0  0  0  0  0  0  0  0
    0.1033   -0.2339    0.0265 N   0  0  0  0  0  0  0  0  0  0  0  0
   -0.6952    1.7091    1.1939 C   0  0  0  0  0  0  0  0  0  0  0  0
    0.2873   -0.8879    1.2127 N   0  0  0  0  0  0  0  0  0  0  0  0
    0.4261   -0.9164   -1.1654 N   0  0  0  0  0  0  0  0  0  0  0  0
   -0.4730    0.9597    2.3385 C   0  0  0  0  0  0  0  0  0  0  0  0
   -1.1939    3.0167    1.2581 C   0  0  0  0  0  0  0  0  0  0  0  0
    0.0237   -0.3476    2.3081 N   0  0  0  0  0  0  0  0  0  0  0  0
   -0.4035   -2.1132   -1.3734 C   0  0  0  0  0  0  0  0  0  0  0  0
    1.8548   -1.2546   -1.2534 C   0  0  0  0  0  0  0  0  0  0  0  0
   -0.7603    1.5421    3.5793 C   0  0  0  0  0  0  0  0  0  0  0  0
   -1.4755    3.5842    2.4992 C   0  0  0  0  0  0  0  0  0  0  0  0
   -0.0421   -2.7852   -2.7047 C   0  0  0  0  0  0  0  0  0  0  0  0
    2.1549   -1.9499   -2.5879 C   0  0  0  0  0  0  0  0  0  0  0  0
   -1.2586    2.8463    3.6616 C   0  0  0  0  0  0  0  0  0  0  0  0
    1.3506   -3.1269   -2.7511 O   0  0  0  0  0  0  0  0  0  0  0  0
   -1.3607    3.5868    0.3465 H   0  0  0  0  0  0  0  0  0  0  0  0
   -1.4651   -1.8407   -1.3864 H   0  0  0  0  0  0  0  0  0  0  0  0
   -0.2477   -2.8325   -0.5591 H   0  0  0  0  0  0  0  0  0  0  0  0
    2.4643   -0.3468   -1.1776 H   0  0  0  0  0  0  0  0  0  0  0  0
    2.1401   -1.9246   -0.4321 H   0  0  0  0  0  0  0  0  0  0  0  0
   -0.5940    0.9732    4.4916 H   0  0  0  0  0  0  0  0  0  0  0  0
   -1.8629    4.5988    2.5594 H   0  0  0  0  0  0  0  0  0  0  0  0
   -0.2841   -2.1389   -3.5572 H   0  0  0  0  0  0  0  0  0  0  0  0
   -0.6131   -3.7122   -2.8188 H   0  0  0  0  0  0  0  0  0  0  0  0
    3.2041   -2.2610   -2.6159 H   0  0  0  0  0  0  0  0  0  0  0  0
    1.9854   -1.2760   -3.4365 H   0  0  0  0  0  0  0  0  0  0  0  0
   -1.4768    3.2842    4.6332 H   0  0  0  0  0  0  0  0  0  0  0  0
  1  2  2  0  0  0  0
  2  3  1  0  0  0  0
  2  4  1  0  0  0  0
  3  5  1  0  0  0  0
  3  6  1  0  0  0  0
  4  7  2  0  0  0  0
  4  8  1  0  0  0  0
  5  9  2  0  0  0  0
  6 10  1  0  0  0  0
  6 11  1  0  0  0  0
  7 12  1  0  0  0  0
  8 13  2  0  0  0  0
 10 14  1  0  0  0  0
 11 15  1  0  0  0  0
 12 16  2  0  0  0  0
 14 17  1  0  0  0  0
  7  9  1  0  0  0  0
 13 16  1  0  0  0  0
 15 17  1  0  0  0  0
  8 18  1  0  0  0  0
 10 19  1  0  0  0  0
 10 20  1  0  0  0  0
 11 21  1  0  0  0  0
 11 22  1  0  0  0  0
 12 23  1  0  0  0  0
 13 24  1  0  0  0  0
 14 25  1  0  0  0  0
 14 26  1  0  0  0  0
 15 27  1  0  0  0  0
 15 28  1  0  0  0  0
 16 29  1  0  0  0  0
M  END
>  <Column 1>
O=c1c2ccccc2nnn1N1CCOCC1 ZINC000000001746

>  <Total Molweight>
232.242

>  <cLogP>
0.5756

>  <cLogS>
-1.415

>  <H-Acceptors>
6

>  <H-Donors>
0

>  <Total Surface Area>
172.67

>  <MMFF94 Energy>
111.27

$$$$
Compound 16
Actelion Java MolfileCreator 1.0

 39 41  0  0  0  0  0  0  0  0999 V2000
    3.2450    2.6904   -4.1963 O   0  0  0  0  0  0  0  0  0  0  0  0
    3.5346    1.3706   -3.7159 C   0  0  0  0  0  0  0  0  0  0  0  0
    2.8812    3.5391   -3.0968 C   0  0  0  0  0  0  0  0  0  0  0  0
    2.3179    0.7349   -3.0241 C   0  0  0  0  0  0  0  0  0  0  0  0
    1.6283    3.0246   -2.3733 C   0  0  0  0  0  0  0  0  0  0  0  0
    1.8045    1.6182   -1.9666 N   0  0  0  0  0  0  0  0  0  0  0  0
    0.8649    1.1306   -1.0623 C   0  0  0  0  0  0  0  0  0  0  0  0
   -0.1519    1.9156   -0.6501 N   0  0  0  0  0  0  0  0  0  0  0  0
    0.9518   -0.1451   -0.5227 C   0  0  0  0  0  0  0  0  0  0  0  0
   -1.1063    1.4698    0.2574 N   0  0  0  0  0  0  0  0  0  0  0  0
   -0.0037   -0.5981    0.3938 C   0  0  0  0  0  0  0  0  0  0  0  0
   -1.0413    0.2327    0.7744 C   0  0  0  0  0  0  0  0  0  0  0  0
   -2.0274   -0.1438    1.6749 N   0  0  0  0  0  0  0  0  0  0  0  0
   -2.1538   -1.3343    2.3129 N   0  0  0  0  0  0  0  0  0  0  0  0
   -2.8745   -2.4118    1.8510 C   0  0  0  0  0  0  0  0  0  0  0  0
   -1.6221   -1.6368    3.5456 C   0  0  0  0  0  0  0  0  0  0  0  0
   -2.7752   -3.4197    2.7904 C   0  0  0  0  0  0  0  0  0  0  0  0
   -3.5945   -2.3932    0.5509 C   0  0  0  0  0  0  0  0  0  0  0  0
   -1.9875   -2.9322    3.8563 C   0  0  0  0  0  0  0  0  0  0  0  0
   -0.8061   -0.6679    4.3234 C   0  0  0  0  0  0  0  0  0  0  0  0
    3.8307    0.7616   -4.5759 H   0  0  0  0  0  0  0  0  0  0  0  0
    4.3916    1.4193   -3.0331 H   0  0  0  0  0  0  0  0  0  0  0  0
    3.7305    3.6117   -2.4067 H   0  0  0  0  0  0  0  0  0  0  0  0
    2.6932    4.5403   -3.4975 H   0  0  0  0  0  0  0  0  0  0  0  0
    1.5232    0.5749   -3.7634 H   0  0  0  0  0  0  0  0  0  0  0  0
    2.6281   -0.2413   -2.6400 H   0  0  0  0  0  0  0  0  0  0  0  0
    1.4492    3.6732   -1.5072 H   0  0  0  0  0  0  0  0  0  0  0  0
    0.7667    3.0952   -3.0493 H   0  0  0  0  0  0  0  0  0  0  0  0
    1.7715   -0.8068   -0.7746 H   0  0  0  0  0  0  0  0  0  0  0  0
    0.0879   -1.5989    0.8027 H   0  0  0  0  0  0  0  0  0  0  0  0
   -2.7275    0.5565    1.8704 H   0  0  0  0  0  0  0  0  0  0  0  0
   -3.2299   -4.3996    2.7168 H   0  0  0  0  0  0  0  0  0  0  0  0
   -4.2994   -1.5567    0.5077 H   0  0  0  0  0  0  0  0  0  0  0  0
   -4.1635   -3.3176    0.4073 H   0  0  0  0  0  0  0  0  0  0  0  0
   -2.8888   -2.3008   -0.2807 H   0  0  0  0  0  0  0  0  0  0  0  0
   -1.7197   -3.4651    4.7600 H   0  0  0  0  0  0  0  0  0  0  0  0
    0.1257   -0.4373    3.7975 H   0  0  0  0  0  0  0  0  0  0  0  0
   -1.3574    0.2638    4.4859 H   0  0  0  0  0  0  0  0  0  0  0  0
   -0.5454   -1.0776    5.3047 H   0  0  0  0  0  0  0  0  0  0  0  0
  1  2  1  0  0  0  0
  1  3  1  0  0  0  0
  2  4  1  0  0  0  0
  3  5  1  0  0  0  0
  4  6  1  0  0  0  0
  6  7  1  0  0  0  0
  7  8  2  0  0  0  0
  7  9  1  0  0  0  0
  8 10  1  0  0  0  0
  9 11  2  0  0  0  0
 10 12  2  0  0  0  0
 12 13  1  0  0  0  0
 13 14  1  0  0  0  0
 14 15  1  0  0  0  0
 14 16  1  0  0  0  0
 15 17  2  0  0  0  0
 15 18  1  0  0  0  0
 16 19  2  0  0  0  0
 16 20  1  0  0  0  0
  5  6  1  0  0  0  0
 11 12  1  0  0  0  0
 17 19  1  0  0  0  0
  2 21  1  0  0  0  0
  2 22  1  0  0  0  0
  3 23  1  0  0  0  0
  3 24  1  0  0  0  0
  4 25  1  0  0  0  0
  4 26  1  0  0  0  0
  5 27  1  0  0  0  0
  5 28  1  0  0  0  0
  9 29  1  0  0  0  0
 11 30  1  0  0  0  0
 13 31  1  0  0  0  0
 17 32  1  0  0  0  0
 18 33  1  0  0  0  0
 18 34  1  0  0  0  0
 18 35  1  0  0  0  0
 19 36  1  0  0  0  0
 20 37  1  0  0  0  0
 20 38  1  0  0  0  0
 20 39  1  0  0  0  0
M  END
>  <Column 1>
Cc1ccc(C)n1Nc1ccc(N2CCOCC2)nn1 ZINC000000001749

>  <Total Molweight>
273.339

>  <cLogP>
1.5422

>  <cLogS>
-5.421

>  <H-Acceptors>
6

>  <H-Donors>
1

>  <Total Surface Area>
217.56

>  <MMFF94 Energy>
27.498

$$$$
Compound 17
Actelion Java MolfileCreator 1.0

 24 25  0  0  0  0  0  0  0  0999 V2000
   -2.8016   -0.7998   -3.7635 O   0  0  0  0  0  0  0  0  0  0  0  0
   -2.2124   -1.8876   -3.7695 N   0  0  0  0  0  0  0  0  0  0  0  0
   -2.4101   -2.8140   -4.5683 O   0  0  0  0  0  0  0  0  0  0  0  0
   -1.2104   -2.1170   -2.7770 C   0  0  0  0  0  0  0  0  0  0  0  0
   -0.9853   -1.1106   -1.8934 O   0  0  0  0  0  0  0  0  0  0  0  0
   -0.3983   -3.1983   -2.5323 C   0  0  0  0  0  0  0  0  0  0  0  0
    0.0020   -1.5496   -1.0485 C   0  0  0  0  0  0  0  0  0  0  0  0
    0.3886   -2.8296   -1.4108 C   0  0  0  0  0  0  0  0  0  0  0  0
    0.4629   -0.6893    0.0122 C   0  0  0  0  0  0  0  0  0  0  0  0
   -0.0492    0.4863    0.1756 N   0  0  0  0  0  0  0  0  0  0  0  0
    0.3911    1.2763    1.1985 N   0  0  0  0  0  0  0  0  0  0  0  0
    1.2372    0.9532    2.2776 C   0  0  0  0  0  0  0  0  0  0  0  0
   -0.1351    2.6148    1.3359 C   0  0  0  0  0  0  0  0  0  0  0  0
    1.7953   -0.0995    2.5389 O   0  0  0  0  0  0  0  0  0  0  0  0
    1.3529    2.0922    3.0655 N   0  0  0  0  0  0  0  0  0  0  0  0
    0.6533    3.2081    2.4945 C   0  0  0  0  0  0  0  0  0  0  0  0
   -0.3771   -4.1264   -3.0873 H   0  0  0  0  0  0  0  0  0  0  0  0
    1.1483   -3.4237   -0.9195 H   0  0  0  0  0  0  0  0  0  0  0  0
    1.2677   -1.1073    0.6338 H   0  0  0  0  0  0  0  0  0  0  0  0
   -1.2024    2.5471    1.5715 H   0  0  0  0  0  0  0  0  0  0  0  0
    0.0010    3.1775    0.4077 H   0  0  0  0  0  0  0  0  0  0  0  0
    1.9321    2.0958    3.8942 H   0  0  0  0  0  0  0  0  0  0  0  0
    1.3950    3.9354    2.1507 H   0  0  0  0  0  0  0  0  0  0  0  0
    0.0132    3.6733    3.2488 H   0  0  0  0  0  0  0  0  0  0  0  0
  1  2  2  0  0  0  0
  2  3  1  0  0  0  0
  2  4  1  0  0  0  0
  4  5  1  0  0  0  0
  4  6  2  0  0  0  0
  5  7  1  0  0  0  0
  6  8  1  0  0  0  0
  7  9  1  0  0  0  0
  9 10  2  0  0  0  0
 10 11  1  0  0  0  0
 11 12  1  0  0  0  0
 11 13  1  0  0  0  0
 12 14  2  0  0  0  0
 12 15  1  0  0  0  0
 13 16  1  0  0  0  0
  7  8  2  0  0  0  0
 15 16  1  0  0  0  0
  6 17  1  0  0  0  0
  8 18  1  0  0  0  0
  9 19  1  0  0  0  0
 13 20  1  0  0  0  0
 13 21  1  0  0  0  0
 15 22  1  0  0  0  0
 16 23  1  0  0  0  0
 16 24  1  0  0  0  0
M  CHG  2   2   1   3  -1
M  END
>  <Column 1>
O=C1NCCN1N=Cc1ccc([N+](=O)[O-])o1 ZINC000000001803

>  <Total Molweight>
224.176

>  <cLogP>
-0.02

>  <cLogS>
-3.038

>  <H-Acceptors>
7

>  <H-Donors>
1

>  <Total Surface Area>
164.91

>  <MMFF94 Energy>
65.515

$$$$
Compound 18
Actelion Java MolfileCreator 1.0

 30 30  0  0  0  0  0  0  0  0999 V2000
    2.3318    0.5437   -0.2330 O   0  0  0  0  0  0  0  0  0  0  0  0
    0.9383    0.6441   -0.2500 N   0  0  0  0  0  0  0  0  0  0  0  0
    0.3335   -0.4458    0.6333 C   0  0  0  0  0  0  0  0  0  0  0  0
    0.5499    1.9873    0.3332 C   0  0  0  0  0  0  0  0  0  0  0  0
    0.4507    0.5385   -1.6842 C   0  0  0  0  0  0  0  0  0  0  0  0
    0.8537   -0.6195    1.8525 N   0  0  0  0  0  0  0  0  0  0  0  0
   -0.7397   -1.1099    0.1912 N   0  0  0  0  0  0  0  0  0  0  0  0
   -0.9117    2.3478    0.4040 C   0  0  0  0  0  0  0  0  0  0  0  0
    0.8871   -0.6582   -2.4945 C   0  0  0  0  0  0  0  0  0  0  0  0
    0.2879   -1.5546    2.5908 C   0  0  0  0  0  0  0  0  0  0  0  0
   -1.2288   -2.0162    1.0203 C   0  0  0  0  0  0  0  0  0  0  0  0
   -1.4804    3.3503   -0.2796 C   0  0  0  0  0  0  0  0  0  0  0  0
    1.5029   -0.5881   -3.6828 C   0  0  0  0  0  0  0  0  0  0  0  0
   -0.7565   -2.2775    2.2256 N   0  0  0  0  0  0  0  0  0  0  0  0
    0.8168   -1.7812    3.8288 N   0  0  0  0  0  0  0  0  0  0  0  0
   -2.3124   -2.7314    0.5989 N   0  0  0  0  0  0  0  0  0  0  0  0
    1.1017    2.7247   -0.2650 H   0  0  0  0  0  0  0  0  0  0  0  0
    0.9814    2.0192    1.3421 H   0  0  0  0  0  0  0  0  0  0  0  0
   -0.6441    0.5849   -1.6633 H   0  0  0  0  0  0  0  0  0  0  0  0
    0.8108    1.4565   -2.1672 H   0  0  0  0  0  0  0  0  0  0  0  0
   -1.5287    1.7609    1.0826 H   0  0  0  0  0  0  0  0  0  0  0  0
    0.6933   -1.6384   -2.0660 H   0  0  0  0  0  0  0  0  0  0  0  0
   -2.5397    3.5669   -0.1680 H   0  0  0  0  0  0  0  0  0  0  0  0
   -0.9124    3.9837   -0.9552 H   0  0  0  0  0  0  0  0  0  0  0  0
    1.7426    0.3617   -4.1503 H   0  0  0  0  0  0  0  0  0  0  0  0
    1.8048   -1.4921   -4.2032 H   0  0  0  0  0  0  0  0  0  0  0  0
    0.4424   -2.5350    4.3773 H   0  0  0  0  0  0  0  0  0  0  0  0
    1.6617   -1.2900    4.0688 H   0  0  0  0  0  0  0  0  0  0  0  0
   -2.6648   -2.5772   -0.3291 H   0  0  0  0  0  0  0  0  0  0  0  0
   -2.6707   -3.4445    1.2113 H   0  0  0  0  0  0  0  0  0  0  0  0
  1  2  1  0  0  0  0
  2  3  1  0  0  0  0
  2  4  1  0  0  0  0
  2  5  1  0  0  0  0
  3  6  2  0  0  0  0
  3  7  1  0  0  0  0
  4  8  1  0  0  0  0
  5  9  1  0  0  0  0
  6 10  1  0  0  0  0
  7 11  2  0  0  0  0
  8 12  2  0  0  0  0
  9 13  2  0  0  0  0
 10 14  2  0  0  0  0
 10 15  1  0  0  0  0
 11 16  1  0  0  0  0
 11 14  1  0  0  0  0
  4 17  1  0  0  0  0
  4 18  1  0  0  0  0
  5 19  1  0  0  0  0
  5 20  1  0  0  0  0
  8 21  1  0  0  0  0
  9 22  1  0  0  0  0
 12 23  1  0  0  0  0
 12 24  1  0  0  0  0
 13 25  1  0  0  0  0
 13 26  1  0  0  0  0
 15 27  1  0  0  0  0
 15 28  1  0  0  0  0
 16 29  1  0  0  0  0
 16 30  1  0  0  0  0
M  CHG  2   1  -1   2   1
M  END
>  <Column 1>
C=CC[N+]([O-])(CC=C)c1nc(N)nc(N)n1 ZINC000000001876

>  <Total Molweight>
222.251

>  <cLogP>
0.0951

>  <cLogS>
-3.13

>  <H-Acceptors>
6

>  <H-Donors>
2

>  <Total Surface Area>
175.35

>  <MMFF94 Energy>
-161.87

$$$$
Compound 19
Actelion Java MolfileCreator 1.0

 30 30  0  0  0  0  0  0  0  0999 V2000
    0.7659    0.6127   -0.3063 N   0  0  0  0  0  0  0  0  0  0  0  0
   -0.3900    0.3699   -0.9147 C   0  0  0  0  0  0  0  0  0  0  0  0
    1.0644   -0.1258    0.7573 C   0  0  0  0  0  0  0  0  0  0  0  0
   -1.2382   -0.5618   -0.4994 N   0  0  0  0  0  0  0  0  0  0  0  0
   -0.7233    1.1212   -2.0281 N   0  0  0  0  0  0  0  0  0  0  0  0
    0.2599   -1.0730    1.2237 N   0  0  0  0  0  0  0  0  0  0  0  0
    2.2650    0.1034    1.4062 N   0  0  0  0  0  0  0  0  0  0  0  0
   -0.8722   -1.2567    0.5658 C   0  0  0  0  0  0  0  0  0  0  0  0
   -2.0618    1.0046   -2.5625 C   0  0  0  0  0  0  0  0  0  0  0  0
    0.0999    2.2622   -2.3609 C   0  0  0  0  0  0  0  0  0  0  0  0
    3.0459    1.2583    1.0230 C   0  0  0  0  0  0  0  0  0  0  0  0
    2.4984   -0.5482    2.6757 C   0  0  0  0  0  0  0  0  0  0  0  0
   -1.6916   -2.2393    1.0553 N   0  0  0  0  0  0  0  0  0  0  0  0
   -2.9344   -2.5693    0.4234 C   0  0  0  0  0  0  0  0  0  0  0  0
   -2.3106   -0.0358   -2.8008 H   0  0  0  0  0  0  0  0  0  0  0  0
   -2.8012    1.3940   -1.8537 H   0  0  0  0  0  0  0  0  0  0  0  0
   -2.1662    1.5720   -3.4938 H   0  0  0  0  0  0  0  0  0  0  0  0
    1.1523    1.9789   -2.4765 H   0  0  0  0  0  0  0  0  0  0  0  0
    0.0226    3.0381   -1.5911 H   0  0  0  0  0  0  0  0  0  0  0  0
   -0.2096    2.7087   -3.3123 H   0  0  0  0  0  0  0  0  0  0  0  0
    3.2646    1.2576   -0.0510 H   0  0  0  0  0  0  0  0  0  0  0  0
    2.5231    2.1865    1.2792 H   0  0  0  0  0  0  0  0  0  0  0  0
    4.0125    1.2705    1.5385 H   0  0  0  0  0  0  0  0  0  0  0  0
    2.3892   -1.6357    2.5956 H   0  0  0  0  0  0  0  0  0  0  0  0
    1.8065   -0.1759    3.4394 H   0  0  0  0  0  0  0  0  0  0  0  0
    3.5169   -0.3622    3.0340 H   0  0  0  0  0  0  0  0  0  0  0  0
   -1.3423   -2.7385    1.8570 H   0  0  0  0  0  0  0  0  0  0  0  0
   -2.7798   -2.9118   -0.6051 H   0  0  0  0  0  0  0  0  0  0  0  0
   -3.6178   -1.7136    0.4169 H   0  0  0  0  0  0  0  0  0  0  0  0
   -3.4234   -3.3796    0.9731 H   0  0  0  0  0  0  0  0  0  0  0  0
  1  2  2  0  0  0  0
  1  3  1  0  0  0  0
  2  4  1  0  0  0  0
  2  5  1  0  0  0  0
  3  6  2  0  0  0  0
  3  7  1  0  0  0  0
  4  8  2  0  0  0  0
  5  9  1  0  0  0  0
  5 10  1  0  0  0  0
  7 11  1  0  0  0  0
  7 12  1  0  0  0  0
  8 13  1  0  0  0  0
 13 14  1  0  0  0  0
  6  8  1  0  0  0  0
  9 15  1  0  0  0  0
  9 16  1  0  0  0  0
  9 17  1  0  0  0  0
 10 18  1  0  0  0  0
 10 19  1  0  0  0  0
 10 20  1  0  0  0  0
 11 21  1  0  0  0  0
 11 22  1  0  0  0  0
 11 23  1  0  0  0  0
 12 24  1  0  0  0  0
 12 25  1  0  0  0  0
 12 26  1  0  0  0  0
 13 27  1  0  0  0  0
 14 28  1  0  0  0  0
 14 29  1  0  0  0  0
 14 30  1  0  0  0  0
M  END
>  <Column 1>
CNc1nc(N(C)C)nc(N(C)C)n1 ZINC000000001900

>  <Total Molweight>
196.257

>  <cLogP>
0.521

>  <cLogS>
-1.934

>  <H-Acceptors>
6

>  <H-Donors>
1

>  <Total Surface Area>
162.9

>  <MMFF94 Energy>
-254.44

$$$$
Compound 20
Actelion Java MolfileCreator 1.0

 28 29  0  0  0  0  0  0  0  0999 V2000
   -0.7287    0.4048   -1.7819 S   0  0  0  0  0  0  0  0  0  0  0  0
   -0.2310   -0.2813   -2.9629 O   0  0  0  0  0  0  0  0  0  0  0  0
   -1.7440    1.4389   -1.9208 O   0  0  0  0  0  0  0  0  0  0  0  0
   -1.3979   -0.8360   -0.6912 C   0  0  0  0  0  0  0  0  0  0  0  0
    0.6616    1.1647   -0.9714 C   0  0  0  0  0  0  0  0  0  0  0  0
   -0.5017   -1.3928    0.1614 N   0  0  0  0  0  0  0  0  0  0  0  0
   -2.7513   -1.1315   -0.7238 C   0  0  0  0  0  0  0  0  0  0  0  0
    0.4733    2.3115   -0.1975 C   0  0  0  0  0  0  0  0  0  0  0  0
    1.9407    0.6365   -1.1552 C   0  0  0  0  0  0  0  0  0  0  0  0
   -1.0062   -2.3168    1.0128 C   0  0  0  0  0  0  0  0  0  0  0  0
   -3.2221   -2.0889    0.1732 C   0  0  0  0  0  0  0  0  0  0  0  0
    1.5759    2.9176    0.4114 C   0  0  0  0  0  0  0  0  0  0  0  0
    3.0336    1.2527   -0.5398 C   0  0  0  0  0  0  0  0  0  0  0  0
   -2.3437   -2.7181    1.0571 C   0  0  0  0  0  0  0  0  0  0  0  0
    2.8642    2.4026    0.2375 C   0  0  0  0  0  0  0  0  0  0  0  0
   -2.8072   -3.6402    1.9767 N   0  0  0  0  0  0  0  0  0  0  0  0
    3.9456    2.9892    0.8682 N   0  0  0  0  0  0  0  0  0  0  0  0
   -3.4217   -0.6353   -1.4177 H   0  0  0  0  0  0  0  0  0  0  0  0
   -0.5168    2.7397   -0.0613 H   0  0  0  0  0  0  0  0  0  0  0  0
    2.0948   -0.2518   -1.7635 H   0  0  0  0  0  0  0  0  0  0  0  0
   -0.2765   -2.7480    1.6932 H   0  0  0  0  0  0  0  0  0  0  0  0
   -4.2798   -2.3388    0.1773 H   0  0  0  0  0  0  0  0  0  0  0  0
    1.4204    3.8037    1.0217 H   0  0  0  0  0  0  0  0  0  0  0  0
    4.0241    0.8265   -0.6765 H   0  0  0  0  0  0  0  0  0  0  0  0
   -3.7651   -3.9633    1.9390 H   0  0  0  0  0  0  0  0  0  0  0  0
   -2.1620   -4.1481    2.5678 H   0  0  0  0  0  0  0  0  0  0  0  0
    4.8829    2.6553    0.6915 H   0  0  0  0  0  0  0  0  0  0  0  0
    3.8341    3.8560    1.3757 H   0  0  0  0  0  0  0  0  0  0  0  0
  1  2  2  0  0  0  0
  1  3  2  0  0  0  0
  1  4  1  0  0  0  0
  1  5  1  0  0  0  0
  4  6  2  0  0  0  0
  4  7  1  0  0  0  0
  5  8  2  0  0  0  0
  5  9  1  0  0  0  0
  6 10  1  0  0  0  0
  7 11  2  0  0  0  0
  8 12  1  0  0  0  0
  9 13  2  0  0  0  0
 10 14  2  0  0  0  0
 12 15  2  0  0  0  0
 14 16  1  0  0  0  0
 15 17  1  0  0  0  0
 11 14  1  0  0  0  0
 13 15  1  0  0  0  0
  7 18  1  0  0  0  0
  8 19  1  0  0  0  0
  9 20  1  0  0  0  0
 10 21  1  0  0  0  0
 11 22  1  0  0  0  0
 12 23  1  0  0  0  0
 13 24  1  0  0  0  0
 16 25  1  0  0  0  0
 16 26  1  0  0  0  0
 17 27  1  0  0  0  0
 17 28  1  0  0  0  0
M  END
>  <Column 1>
Nc1ccc(S(=O)(=O)c2ccc(N)cn2)cc1 ZINC000000002008

>  <Total Molweight>
249.293

>  <cLogP>
0.1067

>  <cLogS>
-2.272

>  <H-Acceptors>
5

>  <H-Donors>
2

>  <Total Surface Area>
177.4

>  <MMFF94 Energy>
134.99

$$$$
Compound 21
Actelion Java MolfileCreator 1.0

 14 14  0  0  0  0  0  0  0  0999 V2000
   -0.0776    1.7074   -2.0958 O   0  0  0  0  0  0  0  0  0  0  0  0
   -0.0723    0.7953   -1.0814 C   0  0  0  0  0  0  0  0  0  0  0  0
    0.7138    1.0666    0.0326 C   0  0  0  0  0  0  0  0  0  0  0  0
   -0.8289   -0.3720   -1.1548 C   0  0  0  0  0  0  0  0  0  0  0  0
    0.7401    0.1563    1.0829 C   0  0  0  0  0  0  0  0  0  0  0  0
   -0.7953   -1.2799   -0.0938 C   0  0  0  0  0  0  0  0  0  0  0  0
    1.5208    0.4501    2.1622 O   0  0  0  0  0  0  0  0  0  0  0  0
   -0.0088   -1.0171    1.0301 C   0  0  0  0  0  0  0  0  0  0  0  0
   -0.6653    1.3872   -2.7990 H   0  0  0  0  0  0  0  0  0  0  0  0
    1.3002    1.9785    0.0817 H   0  0  0  0  0  0  0  0  0  0  0  0
   -1.4448   -0.5897   -2.0215 H   0  0  0  0  0  0  0  0  0  0  0  0
   -1.3827   -2.1933   -0.1430 H   0  0  0  0  0  0  0  0  0  0  0  0
    1.4401   -0.2690    2.8094 H   0  0  0  0  0  0  0  0  0  0  0  0
    0.0073   -1.7320    1.8467 H   0  0  0  0  0  0  0  0  0  0  0  0
  1  2  1  0  0  0  0
  2  3  2  0  0  0  0
  2  4  1  0  0  0  0
  3  5  1  0  0  0  0
  4  6  2  0  0  0  0
  5  7  1  0  0  0  0
  5  8  2  0  0  0  0
  6  8  1  0  0  0  0
  1  9  1  0  0  0  0
  3 10  1  0  0  0  0
  4 11  1  0  0  0  0
  6 12  1  0  0  0  0
  7 13  1  0  0  0  0
  8 14  1  0  0  0  0
M  END
>  <Column 1>
Oc1cccc(O)c1 ZINC000000002028

>  <Total Molweight>
110.112

>  <cLogP>
0.9682

>  <cLogS>
-1.024

>  <H-Acceptors>
2

>  <H-Donors>
2

>  <Total Surface Area>
85.96

>  <MMFF94 Energy>
-3.9017

$$$$
Compound 22
Actelion Java MolfileCreator 1.0

 20 22  0  0  0  0  0  0  0  0999 V2000
   -0.2432   -0.6486    2.1902 N   0  0  0  0  0  0  0  0  0  0  0  0
    0.2710   -0.3394    3.4146 N   0  0  0  0  0  0  0  0  0  0  0  0
    0.1710    0.0071    1.0861 C   0  0  0  0  0  0  0  0  0  0  0  0
    1.1948    0.6283    3.4949 C   0  0  0  0  0  0  0  0  0  0  0  0
    1.1384    1.0039    1.2547 C   0  0  0  0  0  0  0  0  0  0  0  0
   -0.3331   -0.2797   -0.1979 C   0  0  0  0  0  0  0  0  0  0  0  0
    1.6624    1.3282    2.4551 N   0  0  0  0  0  0  0  0  0  0  0  0
    1.5420    1.6565    0.1088 C   0  0  0  0  0  0  0  0  0  0  0  0
    0.1605    0.4580   -1.2897 C   0  0  0  0  0  0  0  0  0  0  0  0
   -1.3105   -1.2754   -0.4263 C   0  0  0  0  0  0  0  0  0  0  0  0
    1.0848    1.4134   -1.1432 N   0  0  0  0  0  0  0  0  0  0  0  0
   -0.3288    0.1846   -2.5605 C   0  0  0  0  0  0  0  0  0  0  0  0
   -1.7873   -1.5332   -1.7102 C   0  0  0  0  0  0  0  0  0  0  0  0
   -1.2945   -0.8003   -2.7811 C   0  0  0  0  0  0  0  0  0  0  0  0
    1.5886    0.8566    4.4770 H   0  0  0  0  0  0  0  0  0  0  0  0
    2.2915    2.4421    0.1712 H   0  0  0  0  0  0  0  0  0  0  0  0
   -1.7047   -1.8569    0.4068 H   0  0  0  0  0  0  0  0  0  0  0  0
    0.0530    0.7551   -3.4047 H   0  0  0  0  0  0  0  0  0  0  0  0
   -2.5391   -2.3021   -1.8701 H   0  0  0  0  0  0  0  0  0  0  0  0
   -1.6567   -0.9899   -3.7885 H   0  0  0  0  0  0  0  0  0  0  0  0
  1  2  2  0  0  0  0
  1  3  1  0  0  0  0
  2  4  1  0  0  0  0
  3  5  1  0  0  0  0
  3  6  2  0  0  0  0
  4  7  2  0  0  0  0
  5  8  2  0  0  0  0
  6  9  1  0  0  0  0
  6 10  1  0  0  0  0
  8 11  1  0  0  0  0
  9 12  1  0  0  0  0
 10 13  2  0  0  0  0
 12 14  2  0  0  0  0
  5  7  1  0  0  0  0
  9 11  2  0  0  0  0
 13 14  1  0  0  0  0
  4 15  1  0  0  0  0
  8 16  1  0  0  0  0
 10 17  1  0  0  0  0
 12 18  1  0  0  0  0
 13 19  1  0  0  0  0
 14 20  1  0  0  0  0
M  END
>  <Column 1>
c1ccc2c(c1)ncc1ncnnc12 ZINC000000002080

>  <Total Molweight>
182.186

>  <cLogP>
1.0229

>  <cLogS>
-2.263

>  <H-Acceptors>
4

>  <H-Donors>
0

>  <Total Surface Area>
137.5

>  <MMFF94 Energy>
78.387

$$$$
Compound 23
Actelion Java MolfileCreator 1.0

 19 19  0  0  0  0  0  0  0  0999 V2000
   -1.6943   -0.9679   -1.6136 S   0  0  0  0  0  0  0  0  0  0  0  0
   -1.0243   -1.6142   -2.7179 O   0  0  0  0  0  0  0  0  0  0  0  0
   -2.8088   -0.0689   -1.8037 O   0  0  0  0  0  0  0  0  0  0  0  0
   -2.2639   -2.2058   -0.6328 N   0  0  0  0  0  0  0  0  0  0  0  0
   -0.4931   -0.1974   -0.5710 C   0  0  0  0  0  0  0  0  0  0  0  0
   -0.8722    0.8582    0.2598 C   0  0  0  0  0  0  0  0  0  0  0  0
    0.8361   -0.6210   -0.6153 C   0  0  0  0  0  0  0  0  0  0  0  0
    0.0879    1.4797    1.0635 C   0  0  0  0  0  0  0  0  0  0  0  0
    1.7859    0.0093    0.1938 C   0  0  0  0  0  0  0  0  0  0  0  0
    1.4243    1.0699    1.0303 C   0  0  0  0  0  0  0  0  0  0  0  0
    2.3625    1.6686    1.8498 N   0  0  0  0  0  0  0  0  0  0  0  0
   -2.0497   -3.1087   -1.0562 H   0  0  0  0  0  0  0  0  0  0  0  0
   -3.2555   -2.0646   -0.4385 H   0  0  0  0  0  0  0  0  0  0  0  0
   -1.9037    1.2010    0.2910 H   0  0  0  0  0  0  0  0  0  0  0  0
    1.1406   -1.4351   -1.2684 H   0  0  0  0  0  0  0  0  0  0  0  0
   -0.2172    2.2939    1.7160 H   0  0  0  0  0  0  0  0  0  0  0  0
    2.8169   -0.3335    0.1617 H   0  0  0  0  0  0  0  0  0  0  0  0
    3.3386    1.4155    1.7819 H   0  0  0  0  0  0  0  0  0  0  0  0
    2.1159    2.4743    2.4082 H   0  0  0  0  0  0  0  0  0  0  0  0
  1  2  2  0  0  0  0
  1  3  2  0  0  0  0
  1  4  1  0  0  0  0
  1  5  1  0  0  0  0
  5  6  2  0  0  0  0
  5  7  1  0  0  0  0
  6  8  1  0  0  0  0
  7  9  2  0  0  0  0
  8 10  2  0  0  0  0
 10 11  1  0  0  0  0
  9 10  1  0  0  0  0
  4 12  1  0  0  0  0
  4 13  1  0  0  0  0
  6 14  1  0  0  0  0
  7 15  1  0  0  0  0
  8 16  1  0  0  0  0
  9 17  1  0  0  0  0
 11 18  1  0  0  0  0
 11 19  1  0  0  0  0
M  END
>  <Column 1>
Nc1ccc(S(N)(=O)=O)cc1 ZINC000000002101

>  <Total Molweight>
172.208

>  <cLogP>
-0.2537

>  <cLogS>
-1.591

>  <H-Acceptors>
4

>  <H-Donors>
2

>  <Total Surface Area>
118.88

>  <MMFF94 Energy>
-67.486

$$$$
Compound 24
Actelion Java MolfileCreator 1.0

 32 33  0  0  0  0  0  0  0  0999 V2000
   -1.0781    1.2440   -1.8250 S   0  0  0  0  0  0  0  0  0  0  0  0
    0.1271    1.2110   -2.6257 O   0  0  0  0  0  0  0  0  0  0  0  0
   -2.1974    0.3704   -2.1133 O   0  0  0  0  0  0  0  0  0  0  0  0
   -0.6557    1.0584   -0.1769 N   0  0  0  0  0  0  0  0  0  0  0  0
   -1.6700    2.9253   -1.7823 C   0  0  0  0  0  0  0  0  0  0  0  0
    0.1621   -0.0900    0.0989 C   0  0  0  0  0  0  0  0  0  0  0  0
   -1.7747    1.2849    0.7719 C   0  0  0  0  0  0  0  0  0  0  0  0
   -2.7415    3.1106   -0.7166 C   0  0  0  0  0  0  0  0  0  0  0  0
    1.4466    0.1300    0.6022 C   0  0  0  0  0  0  0  0  0  0  0  0
   -0.3152   -1.3946   -0.0645 C   0  0  0  0  0  0  0  0  0  0  0  0
   -2.2392    2.7382    0.6792 C   0  0  0  0  0  0  0  0  0  0  0  0
    2.2692   -0.9524    0.9202 C   0  0  0  0  0  0  0  0  0  0  0  0
    0.5025   -2.4815    0.2516 C   0  0  0  0  0  0  0  0  0  0  0  0
    1.7961   -2.2543    0.7317 C   0  0  0  0  0  0  0  0  0  0  0  0
    2.8221   -3.6305    1.1609 S   0  0  0  0  0  0  0  0  0  0  0  0
    1.9855   -4.7713    1.4513 O   0  0  0  0  0  0  0  0  0  0  0  0
    3.8610   -3.1850    2.0600 O   0  0  0  0  0  0  0  0  0  0  0  0
    3.5810   -3.9662   -0.2961 N   0  0  0  0  0  0  0  0  0  0  0  0
   -0.8078    3.5742   -1.5971 H   0  0  0  0  0  0  0  0  0  0  0  0
   -2.0679    3.1528   -2.7758 H   0  0  0  0  0  0  0  0  0  0  0  0
   -1.4322    1.0963    1.7968 H   0  0  0  0  0  0  0  0  0  0  0  0
   -2.6010    0.5930    0.5720 H   0  0  0  0  0  0  0  0  0  0  0  0
   -3.0703    4.1561   -0.7147 H   0  0  0  0  0  0  0  0  0  0  0  0
   -3.6198    2.5003   -0.9596 H   0  0  0  0  0  0  0  0  0  0  0  0
    1.8115    1.1445    0.7390 H   0  0  0  0  0  0  0  0  0  0  0  0
   -1.3187   -1.5750   -0.4424 H   0  0  0  0  0  0  0  0  0  0  0  0
   -1.4142    3.4065    0.9563 H   0  0  0  0  0  0  0  0  0  0  0  0
   -3.0432    2.9044    1.4055 H   0  0  0  0  0  0  0  0  0  0  0  0
    3.2694   -0.7730    1.3079 H   0  0  0  0  0  0  0  0  0  0  0  0
    0.1271   -3.4938    0.1192 H   0  0  0  0  0  0  0  0  0  0  0  0
    3.3201   -4.8968   -0.6223 H   0  0  0  0  0  0  0  0  0  0  0  0
    4.5872   -3.8236   -0.2094 H   0  0  0  0  0  0  0  0  0  0  0  0
  1  2  2  0  0  0  0
  1  3  2  0  0  0  0
  1  4  1  0  0  0  0
  1  5  1  0  0  0  0
  4  6  1  0  0  0  0
  4  7  1  0  0  0  0
  5  8  1  0  0  0  0
  6  9  2  0  0  0  0
  6 10  1  0  0  0  0
  7 11  1  0  0  0  0
  9 12  1  0  0  0  0
 10 13  2  0  0  0  0
 12 14  2  0  0  0  0
 14 15  1  0  0  0  0
 15 16  2  0  0  0  0
 15 17  2  0  0  0  0
 15 18  1  0  0  0  0
  8 11  1  0  0  0  0
 13 14  1  0  0  0  0
  5 19  1  0  0  0  0
  5 20  1  0  0  0  0
  7 21  1  0  0  0  0
  7 22  1  0  0  0  0
  8 23  1  0  0  0  0
  8 24  1  0  0  0  0
  9 25  1  0  0  0  0
 10 26  1  0  0  0  0
 11 27  1  0  0  0  0
 11 28  1  0  0  0  0
 12 29  1  0  0  0  0
 13 30  1  0  0  0  0
 18 31  1  0  0  0  0
 18 32  1  0  0  0  0
M  END
>  <Column 1>
NS(=O)(=O)c1ccc(N2CCCCS2(=O)=O)cc1 ZINC000000002119

>  <Total Molweight>
290.363

>  <cLogP>
-0.4114

>  <cLogS>
-3.33

>  <H-Acceptors>
6

>  <H-Donors>
1

>  <Total Surface Area>
190.78

>  <MMFF94 Energy>
-93.378

$$$$
Compound 25
Actelion Java MolfileCreator 1.0

 24 25  0  0  0  0  0  0  0  0999 V2000
    3.4094    1.0543    1.3789 S   0  0  0  0  0  0  0  0  0  0  0  0
    1.8871    1.4023    1.9308 C   0  0  0  0  0  0  0  0  0  0  0  0
    0.6336    1.0222    1.4173 N   0  0  0  0  0  0  0  0  0  0  0  0
    1.6657    2.1774    3.0631 N   0  0  0  0  0  0  0  0  0  0  0  0
    0.5222    0.2483    0.2967 N   0  0  0  0  0  0  0  0  0  0  0  0
   -0.4396    1.5573    2.2273 C   0  0  0  0  0  0  0  0  0  0  0  0
    0.2654    2.3354    3.3353 C   0  0  0  0  0  0  0  0  0  0  0  0
   -0.6506   -0.0749   -0.1366 C   0  0  0  0  0  0  0  0  0  0  0  0
   -0.8176   -0.8885   -1.3130 C   0  0  0  0  0  0  0  0  0  0  0  0
    0.2886   -1.3320   -1.9910 O   0  0  0  0  0  0  0  0  0  0  0  0
   -1.9634   -1.3467   -1.9432 C   0  0  0  0  0  0  0  0  0  0  0  0
   -0.1693   -2.0637   -3.0394 C   0  0  0  0  0  0  0  0  0  0  0  0
   -1.5428   -2.1092   -3.0634 C   0  0  0  0  0  0  0  0  0  0  0  0
    0.8126   -2.6386   -3.9044 N   0  0  0  0  0  0  0  0  0  0  0  0
    2.0057   -2.4385   -3.6505 O   0  0  0  0  0  0  0  0  0  0  0  0
    0.3750   -3.3025   -4.8551 O   0  0  0  0  0  0  0  0  0  0  0  0
    2.4329    2.5637    3.6004 H   0  0  0  0  0  0  0  0  0  0  0  0
   -1.0699    2.2135    1.6191 H   0  0  0  0  0  0  0  0  0  0  0  0
   -1.0386    0.7374    2.6356 H   0  0  0  0  0  0  0  0  0  0  0  0
    0.0469    1.9313    4.3279 H   0  0  0  0  0  0  0  0  0  0  0  0
    0.0159    3.4001    3.3164 H   0  0  0  0  0  0  0  0  0  0  0  0
   -1.5809    0.2472    0.3597 H   0  0  0  0  0  0  0  0  0  0  0  0
   -2.9814   -1.1536   -1.6315 H   0  0  0  0  0  0  0  0  0  0  0  0
   -2.1560   -2.6234   -3.7913 H   0  0  0  0  0  0  0  0  0  0  0  0
  1  2  2  0  0  0  0
  2  3  1  0  0  0  0
  2  4  1  0  0  0  0
  3  5  1  0  0  0  0
  3  6  1  0  0  0  0
  4  7  1  0  0  0  0
  5  8  2  0  0  0  0
  8  9  1  0  0  0  0
  9 10  1  0  0  0  0
  9 11  2  0  0  0  0
 10 12  1  0  0  0  0
 11 13  1  0  0  0  0
 12 14  1  0  0  0  0
 14 15  2  0  0  0  0
 14 16  1  0  0  0  0
  6  7  1  0  0  0  0
 12 13  2  0  0  0  0
  4 17  1  0  0  0  0
  6 18  1  0  0  0  0
  6 19  1  0  0  0  0
  7 20  1  0  0  0  0
  7 21  1  0  0  0  0
  8 22  1  0  0  0  0
 11 23  1  0  0  0  0
 13 24  1  0  0  0  0
M  CHG  2  14   1  16  -1
M  END
>  <Column 1>
O=[N+]([O-])c1ccc(C=NN2CCNC2=S)o1 ZINC000000002156

>  <Total Molweight>
240.243

>  <cLogP>
0.3405

>  <cLogS>
-3.122

>  <H-Acceptors>
6

>  <H-Donors>
1

>  <Total Surface Area>
179.87

>  <MMFF94 Energy>
86.608

$$$$
Compound 26
Actelion Java MolfileCreator 1.0

 31 33  0  0  0  0  0  0  0  0999 V2000
   -0.3185    0.2389   -1.7528 N   0  0  0  0  0  0  0  0  0  0  0  0
    0.4196   -0.3549   -2.7248 N   0  0  0  0  0  0  0  0  0  0  0  0
    0.1071    0.0171   -0.5330 C   0  0  0  0  0  0  0  0  0  0  0  0
    1.5323   -1.1508   -2.5844 C   0  0  0  0  0  0  0  0  0  0  0  0
    0.2110   -0.2728   -4.0719 C   0  0  0  0  0  0  0  0  0  0  0  0
   -0.5806    0.6077    0.5237 N   0  0  0  0  0  0  0  0  0  0  0  0
    1.2960   -0.8725   -0.2623 C   0  0  0  0  0  0  0  0  0  0  0  0
    1.9639   -1.5193   -3.7737 N   0  0  0  0  0  0  0  0  0  0  0  0
    1.9866   -1.4341   -1.2719 C   0  0  0  0  0  0  0  0  0  0  0  0
    1.1261   -0.9619   -4.7167 N   0  0  0  0  0  0  0  0  0  0  0  0
   -1.9376    1.1382    0.3254 C   0  0  0  0  0  0  0  0  0  0  0  0
    0.0800    1.0983    1.7362 C   0  0  0  0  0  0  0  0  0  0  0  0
    3.1624   -2.3296   -0.9905 C   0  0  0  0  0  0  0  0  0  0  0  0
   -2.8115    0.8128    1.5365 C   0  0  0  0  0  0  0  0  0  0  0  0
   -0.7529    0.7507    2.9667 C   0  0  0  0  0  0  0  0  0  0  0  0
   -2.1735    1.2917    2.8365 C   0  0  0  0  0  0  0  0  0  0  0  0
   -0.6007    0.2913   -4.5032 H   0  0  0  0  0  0  0  0  0  0  0  0
    1.5477   -1.0741    0.7700 H   0  0  0  0  0  0  0  0  0  0  0  0
   -2.4177    0.7016   -0.5579 H   0  0  0  0  0  0  0  0  0  0  0  0
   -1.8866    2.2223    0.1681 H   0  0  0  0  0  0  0  0  0  0  0  0
    0.2012    2.1863    1.6601 H   0  0  0  0  0  0  0  0  0  0  0  0
    1.0857    0.6891    1.8639 H   0  0  0  0  0  0  0  0  0  0  0  0
    2.9840   -3.3292   -1.4006 H   0  0  0  0  0  0  0  0  0  0  0  0
    4.0673   -1.9223   -1.4535 H   0  0  0  0  0  0  0  0  0  0  0  0
    3.3555   -2.4378    0.0821 H   0  0  0  0  0  0  0  0  0  0  0  0
   -2.9658   -0.2723    1.5913 H   0  0  0  0  0  0  0  0  0  0  0  0
   -3.7989    1.2724    1.4158 H   0  0  0  0  0  0  0  0  0  0  0  0
   -0.7882   -0.3388    3.0904 H   0  0  0  0  0  0  0  0  0  0  0  0
   -0.2804    1.1641    3.8646 H   0  0  0  0  0  0  0  0  0  0  0  0
   -2.1531    2.3882    2.8539 H   0  0  0  0  0  0  0  0  0  0  0  0
   -2.7770    0.9663    3.6911 H   0  0  0  0  0  0  0  0  0  0  0  0
  1  2  1  0  0  0  0
  1  3  2  0  0  0  0
  2  4  1  0  0  0  0
  2  5  1  0  0  0  0
  3  6  1  0  0  0  0
  3  7  1  0  0  0  0
  4  8  2  0  0  0  0
  4  9  1  0  0  0  0
  5 10  2  0  0  0  0
  6 11  1  0  0  0  0
  6 12  1  0  0  0  0
  9 13  1  0  0  0  0
 11 14  1  0  0  0  0
 12 15  1  0  0  0  0
 14 16  1  0  0  0  0
  7  9  2  0  0  0  0
  8 10  1  0  0  0  0
 15 16  1  0  0  0  0
  5 17  1  0  0  0  0
  7 18  1  0  0  0  0
 11 19  1  0  0  0  0
 11 20  1  0  0  0  0
 12 21  1  0  0  0  0
 12 22  1  0  0  0  0
 13 23  1  0  0  0  0
 13 24  1  0  0  0  0
 13 25  1  0  0  0  0
 14 26  1  0  0  0  0
 14 27  1  0  0  0  0
 15 28  1  0  0  0  0
 15 29  1  0  0  0  0
 16 30  1  0  0  0  0
 16 31  1  0  0  0  0
M  END
>  <Column 1>
Cc1cc(N2CCCCC2)nn2cnnc12 ZINC000000002256

>  <Total Molweight>
217.275

>  <cLogP>
0.7003

>  <cLogS>
-3.434

>  <H-Acceptors>
5

>  <H-Donors>
0

>  <Total Surface Area>
172.65

>  <MMFF94 Energy>
-7.5303

$$$$
Compound 27
Actelion Java MolfileCreator 1.0

 21 23  0  0  0  0  0  0  0  0999 V2000
    1.2068   -1.2873    3.3818 O   0  0  0  0  0  0  0  0  0  0  0  0
    0.8999   -0.9366    2.2553 C   0  0  0  0  0  0  0  0  0  0  0  0
   -0.1094   -0.0341    1.8737 N   0  0  0  0  0  0  0  0  0  0  0  0
    1.5113   -1.3767    1.0725 N   0  0  0  0  0  0  0  0  0  0  0  0
   -0.1241    0.0842    0.4739 C   0  0  0  0  0  0  0  0  0  0  0  0
   -0.9874    0.6581    2.7736 C   0  0  0  0  0  0  0  0  0  0  0  0
    0.9030   -0.7674   -0.0235 C   0  0  0  0  0  0  0  0  0  0  0  0
   -0.9599    0.8673   -0.3156 C   0  0  0  0  0  0  0  0  0  0  0  0
    1.2319   -0.9514   -1.3603 C   0  0  0  0  0  0  0  0  0  0  0  0
   -0.6664    0.7165   -1.6849 C   0  0  0  0  0  0  0  0  0  0  0  0
    0.4078   -0.1748   -2.1966 C   0  0  0  0  0  0  0  0  0  0  0  0
   -1.2523    1.3034   -2.7410 N   0  0  0  0  0  0  0  0  0  0  0  0
    0.4166   -0.0815   -3.5361 N   0  0  0  0  0  0  0  0  0  0  0  0
   -0.5704    0.7908   -3.7718 N   0  0  0  0  0  0  0  0  0  0  0  0
    2.2733   -2.0354    1.0593 H   0  0  0  0  0  0  0  0  0  0  0  0
   -2.0230    0.3858    2.5500 H   0  0  0  0  0  0  0  0  0  0  0  0
   -0.7634    0.3861    3.8089 H   0  0  0  0  0  0  0  0  0  0  0  0
   -0.8533    1.7370    2.6518 H   0  0  0  0  0  0  0  0  0  0  0  0
   -1.7389    1.5137    0.0557 H   0  0  0  0  0  0  0  0  0  0  0  0
    2.0127   -1.5999   -1.7238 H   0  0  0  0  0  0  0  0  0  0  0  0
   -0.8000    1.0614   -4.7252 H   0  0  0  0  0  0  0  0  0  0  0  0
  1  2  2  0  0  0  0
  2  3  1  0  0  0  0
  2  4  1  0  0  0  0
  3  5  1  0  0  0  0
  3  6  1  0  0  0  0
  4  7  1  0  0  0  0
  5  8  2  0  0  0  0
  7  9  2  0  0  0  0
  8 10  1  0  0  0  0
  9 11  1  0  0  0  0
 10 12  2  0  0  0  0
 11 13  2  0  0  0  0
 12 14  1  0  0  0  0
  5  7  1  0  0  0  0
 10 11  1  0  0  0  0
 13 14  1  0  0  0  0
  4 15  1  0  0  0  0
  6 16  1  0  0  0  0
  6 17  1  0  0  0  0
  6 18  1  0  0  0  0
  8 19  1  0  0  0  0
  9 20  1  0  0  0  0
 14 21  1  0  0  0  0
M  END
>  <Column 1>
Cn1c(=O)[nH]c2cc3n[nH]nc3cc21 ZINC000000002428

>  <Total Molweight>
189.178

>  <cLogP>
-0.1118

>  <cLogS>
-2.492

>  <H-Acceptors>
6

>  <H-Donors>
2

>  <Total Surface Area>
133.22

>  <MMFF94 Energy>
-17.803

$$$$
Compound 28
Actelion Java MolfileCreator 1.0

 25 27  0  0  1  0  0  0  0  0999 V2000
    2.0816   -0.3200    3.1236 O   0  0  0  0  0  0  0  0  0  0  0  0
    1.3096   -0.2535    2.1735 C   0  0  0  0  0  0  0  0  0  0  0  0
    0.3111   -1.1589    1.9927 N   0  0  0  0  0  0  0  0  0  0  0  0
    1.3873    0.7608    1.2797 N   0  0  0  0  0  0  0  0  0  0  0  0
   -0.6736   -1.0532    1.0090 C   0  0  0  0  0  0  0  0  0  0  0  0
    0.7503    0.7090   -0.0006 C   0  0  0  0  0  0  0  0  0  0  0  0
   -0.5290   -0.0868    0.0093 C   0  0  0  0  0  0  0  0  0  0  0  0
   -1.7877   -1.8903    1.0468 C   0  0  0  0  0  0  0  0  0  0  0  0
    0.5839    2.0441   -0.4914 N   0  0  0  0  0  0  0  0  0  0  0  0
    1.7480    0.1655   -1.0733 C   0  0  0  0  0  0  0  0  0  0  0  0
   -1.5321    0.0331   -0.9654 C   0  0  0  0  0  0  0  0  0  0  0  0
   -2.7804   -1.7582    0.0765 C   0  0  0  0  0  0  0  0  0  0  0  0
    1.2962    2.2803   -1.6372 C   0  0  0  0  0  0  0  0  0  0  0  0
    2.2802   -0.9346   -1.1148 O   0  0  0  0  0  0  0  0  0  0  0  0
    1.9829    1.1655   -1.9714 N   0  0  0  0  0  0  0  0  0  0  0  0
   -2.6545   -0.7969   -0.9259 C   0  0  0  0  0  0  0  0  0  0  0  0
    1.2986    3.3327   -2.2490 O   0  0  0  0  0  0  0  0  0  0  0  0
    0.2645   -1.8959    2.6844 H   0  0  0  0  0  0  0  0  0  0  0  0
    2.1362    1.4175    1.4354 H   0  0  0  0  0  0  0  0  0  0  0  0
   -1.8980   -2.6399    1.8253 H   0  0  0  0  0  0  0  0  0  0  0  0
   -0.0065    2.7420   -0.0647 H   0  0  0  0  0  0  0  0  0  0  0  0
   -1.4485    0.7625   -1.7684 H   0  0  0  0  0  0  0  0  0  0  0  0
   -3.6534   -2.4059    0.1011 H   0  0  0  0  0  0  0  0  0  0  0  0
    2.5938    1.0904   -2.7665 H   0  0  0  0  0  0  0  0  0  0  0  0
   -3.4292   -0.7001   -1.6834 H   0  0  0  0  0  0  0  0  0  0  0  0
  1  2  2  0  0  0  0
  2  3  1  0  0  0  0
  2  4  1  0  0  0  0
  3  5  1  0  0  0  0
  4  6  1  0  0  0  0
  5  7  2  0  0  0  0
  5  8  1  0  0  0  0
  6  9  1  0  0  0  0
  6 10  1  0  0  0  0
  7 11  1  0  0  0  0
  8 12  2  0  0  0  0
  9 13  1  0  0  0  0
 10 14  2  0  0  0  0
 10 15  1  0  0  0  0
 11 16  2  0  0  0  0
 13 17  2  0  0  0  0
  6  7  1  0  0  0  0
 12 16  1  0  0  0  0
 13 15  1  0  0  0  0
  3 18  1  0  0  0  0
  4 19  1  0  0  0  0
  8 20  1  0  0  0  0
  9 21  1  0  0  0  0
 11 22  1  0  0  0  0
 12 23  1  0  0  0  0
 15 24  1  0  0  0  0
 16 25  1  0  0  0  0
M  END
>  <Column 1>
O=C1NC(=O)[C@]2(N1)NC(=O)Nc1ccccc12 ZINC000000002762

>  <Total Molweight>
232.199

>  <cLogP>
-0.4152

>  <cLogS>
-1.946

>  <H-Acceptors>
7

>  <H-Donors>
4

>  <Total Surface Area>
155.76

>  <MMFF94 Energy>
-164.99

$$$$
Compound 29
Actelion Java MolfileCreator 1.0

 17 18  0  0  1  0  0  0  0  0999 V2000
   -2.3144   -0.8774   -3.5132 N   0  0  0  0  0  0  0  0  0  0  0  0
   -1.9669   -0.5617   -2.4524 C   0  0  0  0  0  0  0  0  0  0  0  0
   -1.5376   -0.1947   -1.1348 C   0  0  0  0  0  0  0  0  0  0  0  0
   -0.2302   -0.7511   -0.6200 C   0  0  0  0  0  0  0  0  0  0  0  0
   -1.5331   -1.2343   -0.0421 C   0  0  0  0  0  0  0  0  0  0  0  0
    0.6698    0.1611    0.2425 C   0  0  0  0  0  0  0  0  0  0  0  0
    0.5312    1.5194    0.3076 N   0  0  0  0  0  0  0  0  0  0  0  0
    1.6974   -0.2772    1.0404 C   0  0  0  0  0  0  0  0  0  0  0  0
    1.4715    1.9156    1.1349 C   0  0  0  0  0  0  0  0  0  0  0  0
    2.2043    0.8613    1.6050 N   0  0  0  0  0  0  0  0  0  0  0  0
   -1.7949    0.8183   -0.8409 H   0  0  0  0  0  0  0  0  0  0  0  0
    0.3141   -1.4348   -1.2638 H   0  0  0  0  0  0  0  0  0  0  0  0
   -1.8454   -2.2451   -0.2787 H   0  0  0  0  0  0  0  0  0  0  0  0
   -1.8066   -0.9113    0.9563 H   0  0  0  0  0  0  0  0  0  0  0  0
    2.1002   -1.2577    1.2487 H   0  0  0  0  0  0  0  0  0  0  0  0
    1.6691    2.9379    1.4290 H   0  0  0  0  0  0  0  0  0  0  0  0
    2.9790    0.9206    2.2516 H   0  0  0  0  0  0  0  0  0  0  0  0
  1  2  3  0  0  0  0
  2  3  1  0  0  0  0
  3  4  1  0  0  0  0
  3  5  1  0  0  0  0
  4  6  1  0  0  0  0
  6  7  1  0  0  0  0
  6  8  2  0  0  0  0
  7  9  2  0  0  0  0
  8 10  1  0  0  0  0
  4  5  1  0  0  0  0
  9 10  1  0  0  0  0
  3 11  1  0  0  0  0
  4 12  1  0  0  0  0
  5 13  1  0  0  0  0
  5 14  1  0  0  0  0
  8 15  1  0  0  0  0
  9 16  1  0  0  0  0
 10 17  1  0  0  0  0
M  END
>  <Column 1>
N#C[C@H]1C[C@@H]1c1c[nH]cn1 ZINC000000003017

>  <Total Molweight>
133.154

>  <cLogP>
0.4995

>  <cLogS>
-1.72

>  <H-Acceptors>
3

>  <H-Donors>
1

>  <Total Surface Area>
108.56

>  <MMFF94 Energy>
-2.7622

$$$$
Compound 30
Actelion Java MolfileCreator 1.0

 16 16  0  0  0  0  0  0  0  0999 V2000
   -0.7786   -0.6228    1.0123 N   0  0  0  0  0  0  0  0  0  0  0  0
   -0.6971    0.7269    0.9293 C   0  0  0  0  0  0  0  0  0  0  0  0
   -0.0957   -1.3118    0.0674 C   0  0  0  0  0  0  0  0  0  0  0  0
    0.0457    1.3451   -0.0702 C   0  0  0  0  0  0  0  0  0  0  0  0
   -1.4318    1.5399    1.9473 C   0  0  0  0  0  0  0  0  0  0  0  0
    0.6472   -0.6936   -0.9320 C   0  0  0  0  0  0  0  0  0  0  0  0
    0.7286    0.6561   -1.0150 N   0  0  0  0  0  0  0  0  0  0  0  0
    1.3818   -1.5066   -1.9500 C   0  0  0  0  0  0  0  0  0  0  0  0
   -0.1647   -2.3919    0.1390 H   0  0  0  0  0  0  0  0  0  0  0  0
    0.1147    2.4253   -0.1417 H   0  0  0  0  0  0  0  0  0  0  0  0
   -2.1691    2.1838    1.4577 H   0  0  0  0  0  0  0  0  0  0  0  0
   -0.7310    2.1617    2.5131 H   0  0  0  0  0  0  0  0  0  0  0  0
   -1.9608    0.8930    2.6546 H   0  0  0  0  0  0  0  0  0  0  0  0
    1.9106   -0.8596   -2.6572 H   0  0  0  0  0  0  0  0  0  0  0  0
    0.6810   -2.1284   -2.5156 H   0  0  0  0  0  0  0  0  0  0  0  0
    2.1191   -2.1502   -1.4603 H   0  0  0  0  0  0  0  0  0  0  0  0
  1  2  2  0  0  0  0
  1  3  1  0  0  0  0
  2  4  1  0  0  0  0
  2  5  1  0  0  0  0
  3  6  2  0  0  0  0
  4  7  2  0  0  0  0
  6  8  1  0  0  0  0
  6  7  1  0  0  0  0
  3  9  1  0  0  0  0
  4 10  1  0  0  0  0
  5 11  1  0  0  0  0
  5 12  1  0  0  0  0
  5 13  1  0  0  0  0
  8 14  1  0  0  0  0
  8 15  1  0  0  0  0
  8 16  1  0  0  0  0
M  END
>  <Column 1>
Cc1cnc(C)cn1 ZINC000000003182

>  <Total Molweight>
108.144

>  <cLogP>
0.4536

>  <cLogS>
-0.762

>  <H-Acceptors>
2

>  <H-Donors>
0

>  <Total Surface Area>
95.3

>  <MMFF94 Energy>
55.643

$$$$
Compound 31
Actelion Java MolfileCreator 1.0

 16 16  0  0  0  0  0  0  0  0999 V2000
   -0.8568    0.4673   -1.4803 N   0  0  0  0  0  0  0  0  0  0  0  0
   -0.3732   -0.3433   -0.5020 C   0  0  0  0  0  0  0  0  0  0  0  0
   -0.6255    1.7887   -1.3246 C   0  0  0  0  0  0  0  0  0  0  0  0
    0.3233    0.1710    0.5997 C   0  0  0  0  0  0  0  0  0  0  0  0
   -0.6255   -1.8112   -0.6668 C   0  0  0  0  0  0  0  0  0  0  0  0
    0.0608    2.2955   -0.2390 C   0  0  0  0  0  0  0  0  0  0  0  0
    0.5476    1.5042    0.7413 N   0  0  0  0  0  0  0  0  0  0  0  0
    0.8601   -0.7144    1.6830 C   0  0  0  0  0  0  0  0  0  0  0  0
   -1.0112    2.4347   -2.1045 H   0  0  0  0  0  0  0  0  0  0  0  0
    0.3206   -2.3578   -0.7250 H   0  0  0  0  0  0  0  0  0  0  0  0
   -1.1834   -2.0081   -1.5883 H   0  0  0  0  0  0  0  0  0  0  0  0
   -1.2169   -2.1941    0.1706 H   0  0  0  0  0  0  0  0  0  0  0  0
    0.2397    3.3582   -0.1259 H   0  0  0  0  0  0  0  0  0  0  0  0
    0.0462   -1.2617    2.1683 H   0  0  0  0  0  0  0  0  0  0  0  0
    1.3702   -0.1229    2.4506 H   0  0  0  0  0  0  0  0  0  0  0  0
    1.5836   -1.4253    1.2726 H   0  0  0  0  0  0  0  0  0  0  0  0
  1  2  2  0  0  0  0
  1  3  1  0  0  0  0
  2  4  1  0  0  0  0
  2  5  1  0  0  0  0
  3  6  2  0  0  0  0
  4  7  2  0  0  0  0
  4  8  1  0  0  0  0
  6  7  1  0  0  0  0
  3  9  1  0  0  0  0
  5 10  1  0  0  0  0
  5 11  1  0  0  0  0
  5 12  1  0  0  0  0
  6 13  1  0  0  0  0
  8 14  1  0  0  0  0
  8 15  1  0  0  0  0
  8 16  1  0  0  0  0
M  END
>  <Column 1>
Cc1nccnc1C ZINC000000003183

>  <Total Molweight>
108.144

>  <cLogP>
0.4536

>  <cLogS>
-0.762

>  <H-Acceptors>
2

>  <H-Donors>
0

>  <Total Surface Area>
95.3

>  <MMFF94 Energy>
56.817

$$$$
Compound 32
Actelion Java MolfileCreator 1.0

 17 17  0  0  0  0  0  0  0  0999 V2000
   -0.1550   -0.6201    1.0854 O   0  0  0  0  0  0  0  0  0  0  0  0
    1.1555   -0.5884    0.6970 C   0  0  0  0  0  0  0  0  0  0  0  0
   -0.8067    0.0867    0.1141 C   0  0  0  0  0  0  0  0  0  0  0  0
    1.3784    0.0701   -0.4216 N   0  0  0  0  0  0  0  0  0  0  0  0
    2.1167   -1.2851    1.5726 C   0  0  0  0  0  0  0  0  0  0  0  0
    0.1311    0.5074   -0.8054 C   0  0  0  0  0  0  0  0  0  0  0  0
   -2.2646    0.2300    0.2584 C   0  0  0  0  0  0  0  0  0  0  0  0
   -0.0548    1.3013   -2.0369 C   0  0  0  0  0  0  0  0  0  0  0  0
    2.1043   -0.8512    2.5768 H   0  0  0  0  0  0  0  0  0  0  0  0
    3.1326   -1.2009    1.1754 H   0  0  0  0  0  0  0  0  0  0  0  0
    1.8654   -2.3471    1.6487 H   0  0  0  0  0  0  0  0  0  0  0  0
   -2.7469   -0.7522    0.2671 H   0  0  0  0  0  0  0  0  0  0  0  0
   -2.5082    0.7423    1.1943 H   0  0  0  0  0  0  0  0  0  0  0  0
   -2.6894    0.8098   -0.5666 H   0  0  0  0  0  0  0  0  0  0  0  0
    0.8999    1.4649   -2.5463 H   0  0  0  0  0  0  0  0  0  0  0  0
   -0.4863    2.2792   -1.8018 H   0  0  0  0  0  0  0  0  0  0  0  0
   -0.7252    0.7835   -2.7298 H   0  0  0  0  0  0  0  0  0  0  0  0
  1  2  1  0  0  0  0
  1  3  1  0  0  0  0
  2  4  2  0  0  0  0
  2  5  1  0  0  0  0
  3  6  2  0  0  0  0
  3  7  1  0  0  0  0
  6  8  1  0  0  0  0
  4  6  1  0  0  0  0
  5  9  1  0  0  0  0
  5 10  1  0  0  0  0
  5 11  1  0  0  0  0
  7 12  1  0  0  0  0
  7 13  1  0  0  0  0
  7 14  1  0  0  0  0
  8 15  1  0  0  0  0
  8 16  1  0  0  0  0
  8 17  1  0  0  0  0
M  END
>  <Column 1>
Cc1nc(C)c(C)o1 ZINC000000003184

>  <Total Molweight>
111.143

>  <cLogP>
1.2612

>  <cLogS>
-1.429

>  <H-Acceptors>
2

>  <H-Donors>
0

>  <Total Surface Area>
98.49

>  <MMFF94 Energy>
6.3186

$$$$
Compound 33
Actelion Java MolfileCreator 1.0

 18 19  0  0  0  0  0  0  0  0999 V2000
   -2.2512    0.8036   -2.9756 O   0  0  0  0  0  0  0  0  0  0  0  0
   -1.3772    0.5211   -2.1634 C   0  0  0  0  0  0  0  0  0  0  0  0
   -1.6402    0.5113   -0.7940 O   0  0  0  0  0  0  0  0  0  0  0  0
   -0.1051    0.2027   -2.5564 N   0  0  0  0  0  0  0  0  0  0  0  0
   -0.6211    0.1845    0.1107 C   0  0  0  0  0  0  0  0  0  0  0  0
    0.9453   -0.1271   -1.7456 C   0  0  0  0  0  0  0  0  0  0  0  0
   -0.9319    0.1883    1.4676 C   0  0  0  0  0  0  0  0  0  0  0  0
    0.6611   -0.1352   -0.3080 C   0  0  0  0  0  0  0  0  0  0  0  0
    2.0535   -0.3986   -2.1880 O   0  0  0  0  0  0  0  0  0  0  0  0
   -2.1841    0.4985    1.9120 O   0  0  0  0  0  0  0  0  0  0  0  0
    0.0401   -0.1281    2.4105 C   0  0  0  0  0  0  0  0  0  0  0  0
    1.6479   -0.4552    0.6291 C   0  0  0  0  0  0  0  0  0  0  0  0
    1.3334   -0.4507    1.9909 C   0  0  0  0  0  0  0  0  0  0  0  0
    0.0711    0.2137   -3.5496 H   0  0  0  0  0  0  0  0  0  0  0  0
   -2.7351    0.6924    1.1311 H   0  0  0  0  0  0  0  0  0  0  0  0
   -0.2075   -0.1238    3.4690 H   0  0  0  0  0  0  0  0  0  0  0  0
    2.6557   -0.7067    0.3046 H   0  0  0  0  0  0  0  0  0  0  0  0
    2.0957   -0.6986    2.7262 H   0  0  0  0  0  0  0  0  0  0  0  0
  1  2  2  0  0  0  0
  2  3  1  0  0  0  0
  2  4  1  0  0  0  0
  3  5  1  0  0  0  0
  4  6  1  0  0  0  0
  5  7  2  0  0  0  0
  5  8  1  0  0  0  0
  6  9  2  0  0  0  0
  7 10  1  0  0  0  0
  7 11  1  0  0  0  0
  8 12  2  0  0  0  0
 11 13  2  0  0  0  0
  6  8  1  0  0  0  0
 12 13  1  0  0  0  0
  4 14  1  0  0  0  0
 10 15  1  0  0  0  0
 11 16  1  0  0  0  0
 12 17  1  0  0  0  0
 13 18  1  0  0  0  0
M  END
>  <Column 1>
O=c1[nH]c(=O)c2cccc(O)c2o1 ZINC000000003754

>  <Total Molweight>
179.131

>  <cLogP>
0.7166

>  <cLogS>
-2.165

>  <H-Acceptors>
5

>  <H-Donors>
2

>  <Total Surface Area>
123.07

>  <MMFF94 Energy>
-41.853

$$$$
Compound 34
Actelion Java MolfileCreator 1.0

 24 26  0  0  0  0  0  0  0  0999 V2000
    0.6419    1.3644   -1.6857 N   0  0  0  0  0  0  0  0  0  0  0  0
    0.9225    0.3398   -0.8418 C   0  0  0  0  0  0  0  0  0  0  0  0
   -0.5673    1.9212   -1.5556 C   0  0  0  0  0  0  0  0  0  0  0  0
    2.2022   -0.2834   -0.9461 N   0  0  0  0  0  0  0  0  0  0  0  0
    0.0272   -0.1200    0.1055 C   0  0  0  0  0  0  0  0  0  0  0  0
   -1.5087    1.5586   -0.6775 N   0  0  0  0  0  0  0  0  0  0  0  0
    2.5796   -1.3182   -0.1463 N   0  0  0  0  0  0  0  0  0  0  0  0
    3.2037    0.0548   -1.8338 C   0  0  0  0  0  0  0  0  0  0  0  0
   -1.1915    0.5306    0.1492 C   0  0  0  0  0  0  0  0  0  0  0  0
    3.8175   -1.6139   -0.5469 C   0  0  0  0  0  0  0  0  0  0  0  0
    4.2587   -0.7917   -1.5950 C   0  0  0  0  0  0  0  0  0  0  0  0
   -2.1675    0.1109    1.1024 N   0  0  0  0  0  0  0  0  0  0  0  0
   -1.9463   -0.9097    1.9754 N   0  0  0  0  0  0  0  0  0  0  0  0
   -3.4254    0.6529    1.2738 C   0  0  0  0  0  0  0  0  0  0  0  0
   -3.0741   -0.9920    2.6838 C   0  0  0  0  0  0  0  0  0  0  0  0
   -4.0309   -0.0438    2.2911 C   0  0  0  0  0  0  0  0  0  0  0  0
   -0.8064    2.7420   -2.2236 H   0  0  0  0  0  0  0  0  0  0  0  0
    0.2661   -0.9404    0.7732 H   0  0  0  0  0  0  0  0  0  0  0  0
    3.0666    0.8594   -2.5427 H   0  0  0  0  0  0  0  0  0  0  0  0
    4.3479   -2.4200   -0.0554 H   0  0  0  0  0  0  0  0  0  0  0  0
    5.2105   -0.8111   -2.1061 H   0  0  0  0  0  0  0  0  0  0  0  0
   -3.7624    1.4755    0.6586 H   0  0  0  0  0  0  0  0  0  0  0  0
   -3.1509   -1.7434    3.4600 H   0  0  0  0  0  0  0  0  0  0  0  0
   -5.0227    0.1122    2.6911 H   0  0  0  0  0  0  0  0  0  0  0  0
  1  2  2  0  0  0  0
  1  3  1  0  0  0  0
  2  4  1  0  0  0  0
  2  5  1  0  0  0  0
  3  6  2  0  0  0  0
  4  7  1  0  0  0  0
  4  8  1  0  0  0  0
  5  9  2  0  0  0  0
  7 10  2  0  0  0  0
  8 11  2  0  0  0  0
  9 12  1  0  0  0  0
 12 13  1  0  0  0  0
 12 14  1  0  0  0  0
 13 15  2  0  0  0  0
 14 16  2  0  0  0  0
  6  9  1  0  0  0  0
 10 11  1  0  0  0  0
 15 16  1  0  0  0  0
  3 17  1  0  0  0  0
  5 18  1  0  0  0  0
  8 19  1  0  0  0  0
 10 20  1  0  0  0  0
 11 21  1  0  0  0  0
 14 22  1  0  0  0  0
 15 23  1  0  0  0  0
 16 24  1  0  0  0  0
M  END
>  <Column 1>
c1cnn(-c2cc(-n3cccn3)ncn2)c1 ZINC000000003851

>  <Total Molweight>
212.216

>  <cLogP>
1.314

>  <cLogS>
1.688

>  <H-Acceptors>
6

>  <H-Donors>
0

>  <Total Surface Area>
166.22

>  <MMFF94 Energy>
52.454

$$$$
Compound 35
Actelion Java MolfileCreator 1.0

 33 35  0  0  0  0  0  0  0  0999 V2000
    0.9913   -1.0740    2.9762 S   0  0  0  0  0  0  0  0  0  0  0  0
    0.3716    0.5187    2.3038 C   0  0  0  0  0  0  0  0  0  0  0  0
    1.4342   -0.4823    4.6313 C   0  0  0  0  0  0  0  0  0  0  0  0
    0.3951    1.7714    3.6380 S   0  0  0  0  0  0  0  0  0  0  0  0
    1.2109    1.0131    1.1188 C   0  0  0  0  0  0  0  0  0  0  0  0
    0.4552    0.6050    5.0179 C   0  0  0  0  0  0  0  0  0  0  0  0
    1.1207    0.1699   -0.0610 N   0  0  0  0  0  0  0  0  0  0  0  0
    0.1099    0.1314   -0.9812 C   0  0  0  0  0  0  0  0  0  0  0  0
    2.0884   -0.6996   -0.4974 C   0  0  0  0  0  0  0  0  0  0  0  0
   -1.1342    0.8149   -1.0568 C   0  0  0  0  0  0  0  0  0  0  0  0
    0.5226   -0.7639   -1.9211 C   0  0  0  0  0  0  0  0  0  0  0  0
    1.7473   -1.2809   -1.6297 N   0  0  0  0  0  0  0  0  0  0  0  0
   -1.5050    1.6054   -0.1945 O   0  0  0  0  0  0  0  0  0  0  0  0
   -1.8714    0.4810   -2.1953 N   0  0  0  0  0  0  0  0  0  0  0  0
   -0.2441   -1.0694   -3.0193 N   0  0  0  0  0  0  0  0  0  0  0  0
   -1.4794   -0.4432   -3.1860 C   0  0  0  0  0  0  0  0  0  0  0  0
   -3.1590    1.1193   -2.3877 C   0  0  0  0  0  0  0  0  0  0  0  0
    0.2324   -2.0355   -3.9922 C   0  0  0  0  0  0  0  0  0  0  0  0
   -2.2070   -0.6810   -4.1546 O   0  0  0  0  0  0  0  0  0  0  0  0
   -0.6695    0.3612    2.0082 H   0  0  0  0  0  0  0  0  0  0  0  0
    1.3961   -1.3136    5.3416 H   0  0  0  0  0  0  0  0  0  0  0  0
    2.4637   -0.1079    4.6131 H   0  0  0  0  0  0  0  0  0  0  0  0
    0.8943    2.0146    0.8011 H   0  0  0  0  0  0  0  0  0  0  0  0
    2.2735    1.0914    1.3846 H   0  0  0  0  0  0  0  0  0  0  0  0
   -0.5474    0.2023    5.1990 H   0  0  0  0  0  0  0  0  0  0  0  0
    0.7794    1.1198    5.9271 H   0  0  0  0  0  0  0  0  0  0  0  0
    3.0119   -0.8695    0.0426 H   0  0  0  0  0  0  0  0  0  0  0  0
   -3.9366    0.3486   -2.4054 H   0  0  0  0  0  0  0  0  0  0  0  0
   -3.1626    1.6316   -3.3554 H   0  0  0  0  0  0  0  0  0  0  0  0
   -3.3923    1.8423   -1.6023 H   0  0  0  0  0  0  0  0  0  0  0  0
    0.3916   -2.9965   -3.4930 H   0  0  0  0  0  0  0  0  0  0  0  0
    1.1777   -1.6804   -4.4145 H   0  0  0  0  0  0  0  0  0  0  0  0
   -0.4816   -2.1798   -4.8072 H   0  0  0  0  0  0  0  0  0  0  0  0
  1  2  1  0  0  0  0
  1  3  1  0  0  0  0
  2  4  1  0  0  0  0
  2  5  1  0  0  0  0
  3  6  1  0  0  0  0
  5  7  1  0  0  0  0
  7  8  1  0  0  0  0
  7  9  1  0  0  0  0
  8 10  1  0  0  0  0
  8 11  2  0  0  0  0
  9 12  2  0  0  0  0
 10 13  2  0  0  0  0
 10 14  1  0  0  0  0
 11 15  1  0  0  0  0
 14 16  1  0  0  0  0
 14 17  1  0  0  0  0
 15 18  1  0  0  0  0
 16 19  2  0  0  0  0
  4  6  1  0  0  0  0
 11 12  1  0  0  0  0
 15 16  1  0  0  0  0
  2 20  1  0  0  0  0
  3 21  1  0  0  0  0
  3 22  1  0  0  0  0
  5 23  1  0  0  0  0
  5 24  1  0  0  0  0
  6 25  1  0  0  0  0
  6 26  1  0  0  0  0
  9 27  1  0  0  0  0
 17 28  1  0  0  0  0
 17 29  1  0  0  0  0
 17 30  1  0  0  0  0
 18 31  1  0  0  0  0
 18 32  1  0  0  0  0
 18 33  1  0  0  0  0
M  END
>  <Column 1>
Cn1c(=O)c2c(ncn2CC2SCCS2)n(C)c1=O ZINC000000003885

>  <Total Molweight>
298.39

>  <cLogP>
0.3798

>  <cLogS>
-1.805

>  <H-Acceptors>
6

>  <H-Donors>
0

>  <Total Surface Area>
203.6

>  <MMFF94 Energy>
-108.72

$$$$
Compound 36
Actelion Java MolfileCreator 1.0

 21 23  0  0  0  0  0  0  0  0999 V2000
    1.4080    2.1540   -0.1656 S   0  0  0  0  0  0  0  0  0  0  0  0
    1.1822    0.5459    0.5869 C   0  0  0  0  0  0  0  0  0  0  0  0
   -0.3170    2.4940   -0.5931 C   0  0  0  0  0  0  0  0  0  0  0  0
    0.1554   -0.3312    0.1850 C   0  0  0  0  0  0  0  0  0  0  0  0
    2.0891    0.1556    1.5804 C   0  0  0  0  0  0  0  0  0  0  0  0
   -0.9465    1.3171   -1.2694 C   0  0  0  0  0  0  0  0  0  0  0  0
   -0.7318    0.0531   -0.8372 N   0  0  0  0  0  0  0  0  0  0  0  0
    0.0489   -1.5813    0.8096 C   0  0  0  0  0  0  0  0  0  0  0  0
    1.9708   -1.0919    2.1915 C   0  0  0  0  0  0  0  0  0  0  0  0
   -1.7865    1.4240   -2.2624 N   0  0  0  0  0  0  0  0  0  0  0  0
   -1.5027   -0.7480   -1.6495 C   0  0  0  0  0  0  0  0  0  0  0  0
    0.9506   -1.9575    1.8085 C   0  0  0  0  0  0  0  0  0  0  0  0
   -2.1455    0.1317   -2.5204 N   0  0  0  0  0  0  0  0  0  0  0  0
   -1.6333   -1.9610   -1.6671 O   0  0  0  0  0  0  0  0  0  0  0  0
   -0.8811    2.7156    0.3189 H   0  0  0  0  0  0  0  0  0  0  0  0
   -0.3644    3.3687   -1.2482 H   0  0  0  0  0  0  0  0  0  0  0  0
    2.8943    0.8205    1.8860 H   0  0  0  0  0  0  0  0  0  0  0  0
   -0.7340   -2.2849    0.5359 H   0  0  0  0  0  0  0  0  0  0  0  0
    2.6765   -1.3888    2.9637 H   0  0  0  0  0  0  0  0  0  0  0  0
    0.8570   -2.9323    2.2820 H   0  0  0  0  0  0  0  0  0  0  0  0
   -2.7871   -0.1275   -3.2581 H   0  0  0  0  0  0  0  0  0  0  0  0
  1  2  1  0  0  0  0
  1  3  1  0  0  0  0
  2  4  2  0  0  0  0
  2  5  1  0  0  0  0
  3  6  1  0  0  0  0
  4  7  1  0  0  0  0
  4  8  1  0  0  0  0
  5  9  2  0  0  0  0
  6 10  2  0  0  0  0
  7 11  1  0  0  0  0
  8 12  2  0  0  0  0
 10 13  1  0  0  0  0
 11 14  2  0  0  0  0
  6  7  1  0  0  0  0
  9 12  1  0  0  0  0
 11 13  1  0  0  0  0
  3 15  1  0  0  0  0
  3 16  1  0  0  0  0
  5 17  1  0  0  0  0
  8 18  1  0  0  0  0
  9 19  1  0  0  0  0
 12 20  1  0  0  0  0
 13 21  1  0  0  0  0
M  END
>  <Column 1>
O=c1[nH]nc2n1-c1ccccc1SC2 ZINC000000003946

>  <Total Molweight>
205.241

>  <cLogP>
0.4756

>  <cLogS>
-3.711

>  <H-Acceptors>
4

>  <H-Donors>
1

>  <Total Surface Area>
139.99

>  <MMFF94 Energy>
46.055

$$$$
Compound 37
Actelion Java MolfileCreator 1.0

 21 22  0  0  1  0  0  0  0  0999 V2000
   -1.5915   -1.4322    2.1490 O   0  0  0  0  0  0  0  0  0  0  0  0
   -0.9749   -1.1142    1.1343 C   0  0  0  0  0  0  0  0  0  0  0  0
   -1.2628   -1.7489   -0.0407 N   0  0  0  0  0  0  0  0  0  0  0  0
    0.0918   -0.0454    1.1292 C   0  0  0  0  0  0  0  0  0  0  0  0
   -0.4975   -1.6439   -1.2563 C   0  0  0  0  0  0  0  0  0  0  0  0
   -0.4393    1.3643    1.2581 C   0  0  0  0  0  0  0  0  0  0  0  0
    0.9518    0.0423   -0.1452 C   0  0  0  0  0  0  0  0  0  0  0  0
    0.1330   -0.2736   -1.4015 C   0  0  0  0  0  0  0  0  0  0  0  0
   -1.3844    1.7627    1.9137 O   0  0  0  0  0  0  0  0  0  0  0  0
    0.3769    2.1929    0.5079 N   0  0  0  0  0  0  0  0  0  0  0  0
    1.4363    1.4863   -0.1413 C   0  0  0  0  0  0  0  0  0  0  0  0
   -1.9939   -2.4479    0.0349 H   0  0  0  0  0  0  0  0  0  0  0  0
    0.7471   -0.2243    1.9919 H   0  0  0  0  0  0  0  0  0  0  0  0
   -1.1680   -1.8556   -2.0947 H   0  0  0  0  0  0  0  0  0  0  0  0
    0.2696   -2.4252   -1.2274 H   0  0  0  0  0  0  0  0  0  0  0  0
    1.8003   -0.6509   -0.0952 H   0  0  0  0  0  0  0  0  0  0  0  0
   -0.6532    0.4776   -1.5507 H   0  0  0  0  0  0  0  0  0  0  0  0
    0.7744   -0.2474   -2.2898 H   0  0  0  0  0  0  0  0  0  0  0  0
    0.2252    3.1950    0.4968 H   0  0  0  0  0  0  0  0  0  0  0  0
    2.3391    1.6071    0.4661 H   0  0  0  0  0  0  0  0  0  0  0  0
    1.6087    1.9014   -1.1378 H   0  0  0  0  0  0  0  0  0  0  0  0
  1  2  2  0  0  0  0
  2  3  1  0  0  0  0
  2  4  1  0  0  0  0
  3  5  1  0  0  0  0
  4  6  1  0  0  0  0
  4  7  1  0  0  0  0
  5  8  1  0  0  0  0
  6  9  2  0  0  0  0
  6 10  1  0  0  0  0
  7 11  1  0  0  0  0
  7  8  1  0  0  0  0
 10 11  1  0  0  0  0
  3 12  1  0  0  0  0
  4 13  1  0  0  0  0
  5 14  1  0  0  0  0
  5 15  1  0  0  0  0
  7 16  1  0  0  0  0
  8 17  1  0  0  0  0
  8 18  1  0  0  0  0
 10 19  1  0  0  0  0
 11 20  1  0  0  0  0
 11 21  1  0  0  0  0
M  END
>  <Column 1>
O=C1NCC[C@H]2CNC(=O)[C@@H]12 ZINC000000003976

>  <Total Molweight>
154.168

>  <cLogP>
-1.108

>  <cLogS>
-0.74

>  <H-Acceptors>
4

>  <H-Donors>
2

>  <Total Surface Area>
111.2

>  <MMFF94 Energy>
-41.387

$$$$
Compound 38
Actelion Java MolfileCreator 1.0

 34 36  0  0  0  0  0  0  0  0999 V2000
    0.0806    2.0981    1.3714 F   0  0  0  0  0  0  0  0  0  0  0  0
    0.4872    2.1517    0.0948 C   0  0  0  0  0  0  0  0  0  0  0  0
    0.6742    0.9582   -0.6241 C   0  0  0  0  0  0  0  0  0  0  0  0
    0.7234    3.4000   -0.4692 C   0  0  0  0  0  0  0  0  0  0  0  0
    1.1168    1.0647   -1.9551 C   0  0  0  0  0  0  0  0  0  0  0  0
    0.3797   -0.3989    0.0276 C   0  0  0  0  0  0  0  0  0  0  0  0
    1.1570    3.4695   -1.7829 C   0  0  0  0  0  0  0  0  0  0  0  0
    1.3570    2.3157   -2.5305 C   0  0  0  0  0  0  0  0  0  0  0  0
    0.6359   -1.4374   -0.9474 O   0  0  0  0  0  0  0  0  0  0  0  0
   -1.0954   -0.5281    0.4873 C   0  0  0  0  0  0  0  0  0  0  0  0
    1.3650   -0.6002    1.2156 C   0  0  0  0  0  0  0  0  0  0  0  0
    1.3913    4.6651   -2.3386 F   0  0  0  0  0  0  0  0  0  0  0  0
   -2.0645   -0.1334   -0.5161 N   0  0  0  0  0  0  0  0  0  0  0  0
    1.1504   -1.8252    1.9597 N   0  0  0  0  0  0  0  0  0  0  0  0
   -2.8426    0.9503   -0.3312 N   0  0  0  0  0  0  0  0  0  0  0  0
   -2.3754   -0.7652   -1.6794 C   0  0  0  0  0  0  0  0  0  0  0  0
    0.9553   -2.9946    1.3162 N   0  0  0  0  0  0  0  0  0  0  0  0
    1.0946   -1.9892    3.3063 C   0  0  0  0  0  0  0  0  0  0  0  0
   -3.5901    0.9259   -1.4380 C   0  0  0  0  0  0  0  0  0  0  0  0
   -3.3379   -0.1118   -2.2889 N   0  0  0  0  0  0  0  0  0  0  0  0
    0.8037   -3.8344    2.3466 C   0  0  0  0  0  0  0  0  0  0  0  0
    0.8693   -3.2530    3.5797 N   0  0  0  0  0  0  0  0  0  0  0  0
    0.5667    4.3047    0.1064 H   0  0  0  0  0  0  0  0  0  0  0  0
    1.2691    0.1757   -2.5656 H   0  0  0  0  0  0  0  0  0  0  0  0
    1.6920    2.3945   -3.5607 H   0  0  0  0  0  0  0  0  0  0  0  0
    0.7355   -2.2851   -0.4556 H   0  0  0  0  0  0  0  0  0  0  0  0
   -1.2880    0.0788    1.3801 H   0  0  0  0  0  0  0  0  0  0  0  0
   -1.3454   -1.5662    0.7355 H   0  0  0  0  0  0  0  0  0  0  0  0
    1.3112    0.2185    1.9406 H   0  0  0  0  0  0  0  0  0  0  0  0
    2.3981   -0.6569    0.8490 H   0  0  0  0  0  0  0  0  0  0  0  0
   -1.8838   -1.6637   -2.0260 H   0  0  0  0  0  0  0  0  0  0  0  0
    1.2198   -1.1880    4.0223 H   0  0  0  0  0  0  0  0  0  0  0  0
   -4.3413    1.6815   -1.6291 H   0  0  0  0  0  0  0  0  0  0  0  0
    0.6359   -4.8939    2.1971 H   0  0  0  0  0  0  0  0  0  0  0  0
  1  2  1  0  0  0  0
  2  3  2  0  0  0  0
  2  4  1  0  0  0  0
  3  5  1  0  0  0  0
  3  6  1  0  0  0  0
  4  7  2  0  0  0  0
  5  8  2  0  0  0  0
  6  9  1  0  0  0  0
  6 10  1  0  0  0  0
  6 11  1  0  0  0  0
  7 12  1  0  0  0  0
 10 13  1  0  0  0  0
 11 14  1  0  0  0  0
 13 15  1  0  0  0  0
 13 16  1  0  0  0  0
 14 17  1  0  0  0  0
 14 18  1  0  0  0  0
 15 19  2  0  0  0  0
 16 20  2  0  0  0  0
 17 21  2  0  0  0  0
 18 22  2  0  0  0  0
  7  8  1  0  0  0  0
 19 20  1  0  0  0  0
 21 22  1  0  0  0  0
  4 23  1  0  0  0  0
  5 24  1  0  0  0  0
  8 25  1  0  0  0  0
  9 26  1  0  0  0  0
 10 27  1  0  0  0  0
 10 28  1  0  0  0  0
 11 29  1  0  0  0  0
 11 30  1  0  0  0  0
 16 31  1  0  0  0  0
 18 32  1  0  0  0  0
 19 33  1  0  0  0  0
 21 34  1  0  0  0  0
M  END
>  <Column 1>
OC(Cn1cncn1)(Cn1cncn1)c1ccc(F)cc1F ZINC000000004009

>  <Total Molweight>
306.275

>  <cLogP>
-0.1089

>  <cLogS>
-2.175

>  <H-Acceptors>
7

>  <H-Donors>
1

>  <Total Surface Area>
223.2

>  <MMFF94 Energy>
27.662

$$$$
Compound 39
Actelion Java MolfileCreator 1.0

 16 16  0  0  0  0  0  0  0  0999 V2000
   -0.0765   -0.3824    2.1432 N   0  0  0  0  0  0  0  0  0  0  0  0
   -0.1432    0.0817    0.8263 C   0  0  0  0  0  0  0  0  0  0  0  0
    0.3500   -0.7015   -0.2395 C   0  0  0  0  0  0  0  0  0  0  0  0
   -0.8140    1.2762    0.5435 C   0  0  0  0  0  0  0  0  0  0  0  0
    0.9843   -1.9226    0.0063 N   0  0  0  0  0  0  0  0  0  0  0  0
    0.3104   -0.1882   -1.5402 C   0  0  0  0  0  0  0  0  0  0  0  0
   -0.8938    1.7541   -0.7654 C   0  0  0  0  0  0  0  0  0  0  0  0
   -0.3157    1.0309   -1.8047 C   0  0  0  0  0  0  0  0  0  0  0  0
   -0.3401    0.2493    2.8867 H   0  0  0  0  0  0  0  0  0  0  0  0
    0.6723   -1.0326    2.3424 H   0  0  0  0  0  0  0  0  0  0  0  0
   -1.2597    1.8566    1.3462 H   0  0  0  0  0  0  0  0  0  0  0  0
    0.7046   -2.4002    0.8530 H   0  0  0  0  0  0  0  0  0  0  0  0
    1.2266   -2.5032   -0.7845 H   0  0  0  0  0  0  0  0  0  0  0  0
    0.7473   -0.7475   -2.3623 H   0  0  0  0  0  0  0  0  0  0  0  0
   -1.3983    2.6945   -0.9701 H   0  0  0  0  0  0  0  0  0  0  0  0
   -0.3597    1.4089   -2.8224 H   0  0  0  0  0  0  0  0  0  0  0  0
  1  2  1  0  0  0  0
  2  3  2  0  0  0  0
  2  4  1  0  0  0  0
  3  5  1  0  0  0  0
  3  6  1  0  0  0  0
  4  7  2  0  0  0  0
  6  8  2  0  0  0  0
  7  8  1  0  0  0  0
  1  9  1  0  0  0  0
  1 10  1  0  0  0  0
  4 11  1  0  0  0  0
  5 12  1  0  0  0  0
  5 13  1  0  0  0  0
  6 14  1  0  0  0  0
  7 15  1  0  0  0  0
  8 16  1  0  0  0  0
M  END
>  <Column 1>
Nc1ccccc1N ZINC000000004316

>  <Total Molweight>
108.144

>  <cLogP>
0.305

>  <cLogS>
-1.768

>  <H-Acceptors>
2

>  <H-Donors>
2

>  <Total Surface Area>
90.3

>  <MMFF94 Energy>
17.743

$$$$
Compound 40
Actelion Java MolfileCreator 1.0

 22 23  0  0  0  0  0  0  0  0999 V2000
   -1.0716    2.3091   -0.1648 S   0  0  0  0  0  0  0  0  0  0  0  0
   -2.1193    1.4802    0.3880 O   0  0  0  0  0  0  0  0  0  0  0  0
   -0.9958    2.6179   -1.5731 O   0  0  0  0  0  0  0  0  0  0  0  0
   -1.2891    3.8041    0.5822 N   0  0  0  0  0  0  0  0  0  0  0  0
    0.5277    1.8047    0.4769 C   0  0  0  0  0  0  0  0  0  0  0  0
    1.0000    0.5445   -0.1436 C   0  0  0  0  0  0  0  0  0  0  0  0
    2.0841    0.5626   -0.9346 N   0  0  0  0  0  0  0  0  0  0  0  0
    0.4967   -0.7752    0.0129 C   0  0  0  0  0  0  0  0  0  0  0  0
    2.2844   -0.7478   -1.3333 O   0  0  0  0  0  0  0  0  0  0  0  0
    1.3430   -1.5456   -0.7656 C   0  0  0  0  0  0  0  0  0  0  0  0
   -0.5478   -1.4141    0.7039 C   0  0  0  0  0  0  0  0  0  0  0  0
    1.2323   -2.9244   -0.9241 C   0  0  0  0  0  0  0  0  0  0  0  0
   -0.6895   -2.8035    0.5664 C   0  0  0  0  0  0  0  0  0  0  0  0
    0.1854   -3.5437   -0.2338 C   0  0  0  0  0  0  0  0  0  0  0  0
   -2.1361    3.7833    1.1545 H   0  0  0  0  0  0  0  0  0  0  0  0
   -1.3073    4.5397   -0.1287 H   0  0  0  0  0  0  0  0  0  0  0  0
    1.2227    2.6273    0.2768 H   0  0  0  0  0  0  0  0  0  0  0  0
    0.4217    1.6849    1.5598 H   0  0  0  0  0  0  0  0  0  0  0  0
   -1.2441   -0.8573    1.3252 H   0  0  0  0  0  0  0  0  0  0  0  0
    1.9209   -3.4805   -1.5484 H   0  0  0  0  0  0  0  0  0  0  0  0
   -1.4986   -3.3109    1.0889 H   0  0  0  0  0  0  0  0  0  0  0  0
    0.0493   -4.6198   -0.3235 H   0  0  0  0  0  0  0  0  0  0  0  0
  1  2  2  0  0  0  0
  1  3  2  0  0  0  0
  1  4  1  0  0  0  0
  1  5  1  0  0  0  0
  5  6  1  0  0  0  0
  6  7  2  0  0  0  0
  6  8  1  0  0  0  0
  7  9  1  0  0  0  0
  8 10  2  0  0  0  0
  8 11  1  0  0  0  0
 10 12  1  0  0  0  0
 11 13  2  0  0  0  0
 12 14  2  0  0  0  0
  9 10  1  0  0  0  0
 13 14  1  0  0  0  0
  4 15  1  0  0  0  0
  4 16  1  0  0  0  0
  5 17  1  0  0  0  0
  5 18  1  0  0  0  0
 11 19  1  0  0  0  0
 12 20  1  0  0  0  0
 13 21  1  0  0  0  0
 14 22  1  0  0  0  0
M  END
>  <Column 1>
NS(=O)(=O)Cc1noc2ccccc12 ZINC000000004321

>  <Total Molweight>
212.229

>  <cLogP>
0.4386

>  <cLogS>
-3.472

>  <H-Acceptors>
5

>  <H-Donors>
1

>  <Total Surface Area>
147.17

>  <MMFF94 Energy>
-50.221

$$$$
Compound 41
Actelion Java MolfileCreator 1.0

 27 28  0  0  0  0  0  0  0  0999 V2000
    1.5640    3.8353    1.0946 O   0  0  0  0  0  0  0  0  0  0  0  0
    1.0454    2.6290    0.7151 C   0  0  0  0  0  0  0  0  0  0  0  0
    1.2122    4.9632    0.3033 C   0  0  0  0  0  0  0  0  0  0  0  0
    0.2063    2.4000   -0.3716 C   0  0  0  0  0  0  0  0  0  0  0  0
    1.4169    1.5527    1.5193 C   0  0  0  0  0  0  0  0  0  0  0  0
   -0.2540    1.1034   -0.6465 C   0  0  0  0  0  0  0  0  0  0  0  0
    0.9559    0.2598    1.2425 C   0  0  0  0  0  0  0  0  0  0  0  0
    0.1073    0.0004    0.1512 C   0  0  0  0  0  0  0  0  0  0  0  0
   -0.3817   -1.3642   -0.1444 C   0  0  0  0  0  0  0  0  0  0  0  0
   -1.1829   -1.5212   -1.1989 N   0  0  0  0  0  0  0  0  0  0  0  0
    0.0090   -2.3518    0.6618 N   0  0  0  0  0  0  0  0  0  0  0  0
   -1.5872   -2.7611   -1.4125 C   0  0  0  0  0  0  0  0  0  0  0  0
   -0.4593   -3.5470    0.3482 C   0  0  0  0  0  0  0  0  0  0  0  0
   -1.2575   -3.8075   -0.6738 N   0  0  0  0  0  0  0  0  0  0  0  0
   -2.4102   -2.9781   -2.4804 N   0  0  0  0  0  0  0  0  0  0  0  0
   -0.0894   -4.5944    1.1423 N   0  0  0  0  0  0  0  0  0  0  0  0
    1.5727    4.8523   -0.7246 H   0  0  0  0  0  0  0  0  0  0  0  0
    1.7030    5.8407    0.7352 H   0  0  0  0  0  0  0  0  0  0  0  0
    0.1318    5.1408    0.3271 H   0  0  0  0  0  0  0  0  0  0  0  0
   -0.1130    3.2018   -1.0288 H   0  0  0  0  0  0  0  0  0  0  0  0
    2.0719    1.7175    2.3716 H   0  0  0  0  0  0  0  0  0  0  0  0
   -0.9094    0.9605   -1.5049 H   0  0  0  0  0  0  0  0  0  0  0  0
    1.2706   -0.5521    1.8964 H   0  0  0  0  0  0  0  0  0  0  0  0
   -2.6694   -2.1928   -3.0508 H   0  0  0  0  0  0  0  0  0  0  0  0
   -2.7241   -3.9171   -2.6529 H   0  0  0  0  0  0  0  0  0  0  0  0
   -0.4387   -5.5087    0.9146 H   0  0  0  0  0  0  0  0  0  0  0  0
    0.5167   -4.4104    1.9223 H   0  0  0  0  0  0  0  0  0  0  0  0
  1  2  1  0  0  0  0
  1  3  1  0  0  0  0
  2  4  2  0  0  0  0
  2  5  1  0  0  0  0
  4  6  1  0  0  0  0
  5  7  2  0  0  0  0
  6  8  2  0  0  0  0
  8  9  1  0  0  0  0
  9 10  2  0  0  0  0
  9 11  1  0  0  0  0
 10 12  1  0  0  0  0
 11 13  2  0  0  0  0
 12 14  2  0  0  0  0
 12 15  1  0  0  0  0
 13 16  1  0  0  0  0
  7  8  1  0  0  0  0
 13 14  1  0  0  0  0
  3 17  1  0  0  0  0
  3 18  1  0  0  0  0
  3 19  1  0  0  0  0
  4 20  1  0  0  0  0
  5 21  1  0  0  0  0
  6 22  1  0  0  0  0
  7 23  1  0  0  0  0
 15 24  1  0  0  0  0
 15 25  1  0  0  0  0
 16 26  1  0  0  0  0
 16 27  1  0  0  0  0
M  END
>  <Column 1>
COc1ccc(-c2nc(N)nc(N)n2)cc1 ZINC000000004396

>  <Total Molweight>
217.231

>  <cLogP>
0.9301

>  <cLogS>
-3.846

>  <H-Acceptors>
6

>  <H-Donors>
2

>  <Total Surface Area>
168.6

>  <MMFF94 Energy>
-203.28

$$$$
Compound 42
Actelion Java MolfileCreator 1.0

 30 32  0  0  1  0  0  0  0  0999 V2000
    1.4296    1.4296   -1.1912 O   0  0  0  0  0  0  0  0  0  0  0  0
    2.7287    1.8317   -1.3020 C   0  0  0  0  0  0  0  0  0  0  0  0
    1.4486    0.5119   -0.1742 C   0  0  0  0  0  0  0  0  0  0  0  0
    3.5474    1.2582   -0.4576 N   0  0  0  0  0  0  0  0  0  0  0  0
    2.9939    2.7380   -2.2308 N   0  0  0  0  0  0  0  0  0  0  0  0
    2.7507    0.4075    0.2597 C   0  0  0  0  0  0  0  0  0  0  0  0
    0.1634   -0.1320    0.1904 C   0  0  0  0  0  0  0  0  0  0  0  0
    0.0395   -1.5258   -0.4763 C   0  0  0  0  0  0  0  0  0  0  0  0
   -1.0515    0.6963   -0.2244 C   0  0  0  0  0  0  0  0  0  0  0  0
   -0.0471   -0.2157    1.7171 C   0  0  0  0  0  0  0  0  0  0  0  0
   -1.2720   -2.2488   -0.1370 C   0  0  0  0  0  0  0  0  0  0  0  0
   -2.1450   -0.0113    0.5457 N   0  0  0  0  0  0  0  0  0  0  0  0
   -1.5627   -0.1661    1.9361 C   0  0  0  0  0  0  0  0  0  0  0  0
   -2.4914   -1.3271   -0.1132 C   0  0  0  0  0  0  0  0  0  0  0  0
    2.2896    3.1108   -2.8498 H   0  0  0  0  0  0  0  0  0  0  0  0
    3.9441    3.0641   -2.3578 H   0  0  0  0  0  0  0  0  0  0  0  0
    3.1590   -0.2229    1.0385 H   0  0  0  0  0  0  0  0  0  0  0  0
    0.1017   -1.4116   -1.5674 H   0  0  0  0  0  0  0  0  0  0  0  0
    0.8830   -2.1672   -0.1898 H   0  0  0  0  0  0  0  0  0  0  0  0
   -1.0230    1.7340    0.1302 H   0  0  0  0  0  0  0  0  0  0  0  0
   -1.2916    0.6776   -1.2929 H   0  0  0  0  0  0  0  0  0  0  0  0
    0.3910   -1.1226    2.1492 H   0  0  0  0  0  0  0  0  0  0  0  0
    0.4130    0.6337    2.2387 H   0  0  0  0  0  0  0  0  0  0  0  0
   -1.4403   -3.0662   -0.8475 H   0  0  0  0  0  0  0  0  0  0  0  0
   -1.1658   -2.7278    0.8445 H   0  0  0  0  0  0  0  0  0  0  0  0
   -2.9899    0.5767    0.5772 H   0  0  0  0  0  0  0  0  0  0  0  0
   -1.9784   -1.0614    2.4074 H   0  0  0  0  0  0  0  0  0  0  0  0
   -1.8571    0.7217    2.5053 H   0  0  0  0  0  0  0  0  0  0  0  0
   -2.8381   -1.0925   -1.1253 H   0  0  0  0  0  0  0  0  0  0  0  0
   -3.3217   -1.7671    0.4485 H   0  0  0  0  0  0  0  0  0  0  0  0
  1  2  1  0  0  0  0
  1  3  1  0  0  0  0
  2  4  2  0  0  0  0
  2  5  1  0  0  0  0
  3  6  2  0  0  0  0
  3  7  1  0  0  0  0
  7  8  1  0  0  0  0
  7  9  1  0  0  0  0
  7 10  1  0  0  0  0
  8 11  1  0  0  0  0
  9 12  1  0  0  0  0
 10 13  1  0  0  0  0
 11 14  1  0  0  0  0
  4  6  1  0  0  0  0
 12 13  1  0  0  0  0
 12 14  1  0  0  0  0
  5 15  1  0  0  0  0
  5 16  1  0  0  0  0
  6 17  1  0  0  0  0
  8 18  1  0  0  0  0
  8 19  1  0  0  0  0
  9 20  1  0  0  0  0
  9 21  1  0  0  0  0
 10 22  1  0  0  0  0
 10 23  1  0  0  0  0
 11 24  1  0  0  0  0
 11 25  1  0  0  0  0
 12 26  1  0  0  0  0
 13 27  1  0  0  0  0
 13 28  1  0  0  0  0
 14 29  1  0  0  0  0
 14 30  1  0  0  0  0
M  CHG  1  12   1
M  END
>  <Column 1>
Nc1ncc([C@@]23CCC[N@@H+](CC2)C3)o1 ZINC000000004494

>  <Total Molweight>
194.257

>  <cLogP>
-1.4143

>  <cLogS>
-2.221

>  <H-Acceptors>
3

>  <H-Donors>
2

>  <Total Surface Area>
160.54

>  <MMFF94 Energy>
-22.419

$$$$
Compound 43
Actelion Java MolfileCreator 1.0

 30 32  0  0  0  0  0  0  0  0999 V2000
    0.8037   -0.8840   -3.5398 O   0  0  0  0  0  0  0  0  0  0  0  0
    0.4171   -0.8649   -2.3782 C   0  0  0  0  0  0  0  0  0  0  0  0
   -0.4553   -1.9028   -1.8251 C   0  0  0  0  0  0  0  0  0  0  0  0
    0.8131    0.2167   -1.4623 C   0  0  0  0  0  0  0  0  0  0  0  0
   -0.8405   -1.7947   -0.4958 C   0  0  0  0  0  0  0  0  0  0  0  0
   -0.8908   -2.9749   -2.6093 C   0  0  0  0  0  0  0  0  0  0  0  0
    0.3897    0.2388   -0.1869 C   0  0  0  0  0  0  0  0  0  0  0  0
   -0.4422   -0.7654    0.3148 O   0  0  0  0  0  0  0  0  0  0  0  0
   -1.6710   -2.7650    0.0656 C   0  0  0  0  0  0  0  0  0  0  0  0
   -1.7214   -3.9448   -2.0473 C   0  0  0  0  0  0  0  0  0  0  0  0
    0.7221    1.2347    0.7408 N   0  0  0  0  0  0  0  0  0  0  0  0
   -2.1110   -3.8396   -0.7106 C   0  0  0  0  0  0  0  0  0  0  0  0
    1.6497    2.3575    0.4809 C   0  0  0  0  0  0  0  0  0  0  0  0
    0.4034    1.0999    2.1832 C   0  0  0  0  0  0  0  0  0  0  0  0
    1.1549    3.6465    1.1551 C   0  0  0  0  0  0  0  0  0  0  0  0
   -0.0411    2.4441    2.7749 C   0  0  0  0  0  0  0  0  0  0  0  0
    0.9443    3.4641    2.5616 O   0  0  0  0  0  0  0  0  0  0  0  0
    1.4589    0.9624   -1.8995 H   0  0  0  0  0  0  0  0  0  0  0  0
   -0.5852   -3.0535   -3.6502 H   0  0  0  0  0  0  0  0  0  0  0  0
   -1.9759   -2.6855    1.1056 H   0  0  0  0  0  0  0  0  0  0  0  0
   -2.0643   -4.7818   -2.6508 H   0  0  0  0  0  0  0  0  0  0  0  0
   -2.7585   -4.5960   -0.2730 H   0  0  0  0  0  0  0  0  0  0  0  0
    2.6341    2.0859    0.8801 H   0  0  0  0  0  0  0  0  0  0  0  0
    1.7652    2.5662   -0.5857 H   0  0  0  0  0  0  0  0  0  0  0  0
    1.3068    0.7509    2.6978 H   0  0  0  0  0  0  0  0  0  0  0  0
   -0.3891    0.3678    2.3685 H   0  0  0  0  0  0  0  0  0  0  0  0
    0.2217    3.9952    0.6964 H   0  0  0  0  0  0  0  0  0  0  0  0
    1.9011    4.4379    1.0321 H   0  0  0  0  0  0  0  0  0  0  0  0
   -0.9939    2.7696    2.3403 H   0  0  0  0  0  0  0  0  0  0  0  0
   -0.1850    2.3439    3.8553 H   0  0  0  0  0  0  0  0  0  0  0  0
  1  2  2  0  0  0  0
  2  3  1  0  0  0  0
  2  4  1  0  0  0  0
  3  5  2  0  0  0  0
  3  6  1  0  0  0  0
  4  7  2  0  0  0  0
  5  8  1  0  0  0  0
  5  9  1  0  0  0  0
  6 10  2  0  0  0  0
  7 11  1  0  0  0  0
  9 12  2  0  0  0  0
 11 13  1  0  0  0  0
 11 14  1  0  0  0  0
 13 15  1  0  0  0  0
 14 16  1  0  0  0  0
 15 17  1  0  0  0  0
  7  8  1  0  0  0  0
 10 12  1  0  0  0  0
 16 17  1  0  0  0  0
  4 18  1  0  0  0  0
  6 19  1  0  0  0  0
  9 20  1  0  0  0  0
 10 21  1  0  0  0  0
 12 22  1  0  0  0  0
 13 23  1  0  0  0  0
 13 24  1  0  0  0  0
 14 25  1  0  0  0  0
 14 26  1  0  0  0  0
 15 27  1  0  0  0  0
 15 28  1  0  0  0  0
 16 29  1  0  0  0  0
 16 30  1  0  0  0  0
M  END
>  <Column 1>
O=c1cc(N2CCOCC2)oc2ccccc12 ZINC000000004590

>  <Total Molweight>
231.25

>  <cLogP>
1.7884

>  <cLogS>
-3.346

>  <H-Acceptors>
4

>  <H-Donors>
0

>  <Total Surface Area>
174.06

>  <MMFF94 Energy>
86.251

$$$$
Compound 44
Actelion Java MolfileCreator 1.0

 22 23  0  0  0  0  0  0  0  0999 V2000
   -1.5779   -1.8937   -1.0254 O   0  0  0  0  0  0  0  0  0  0  0  0
   -1.3554   -1.0270    0.0312 C   0  0  0  0  0  0  0  0  0  0  0  0
   -2.7223   -2.5580   -0.7124 C   0  0  0  0  0  0  0  0  0  0  0  0
   -2.2955   -1.1346    0.9585 N   0  0  0  0  0  0  0  0  0  0  0  0
   -0.2202   -0.1492    0.0483 C   0  0  0  0  0  0  0  0  0  0  0  0
   -3.1593   -2.0944    0.4976 C   0  0  0  0  0  0  0  0  0  0  0  0
   -0.0741    0.6878    1.1000 C   0  0  0  0  0  0  0  0  0  0  0  0
    0.7938   -0.1582   -1.0649 C   0  0  0  0  0  0  0  0  0  0  0  0
    1.0501    1.6793    1.2277 C   0  0  0  0  0  0  0  0  0  0  0  0
    2.0754    0.5415   -0.7107 N   0  0  0  0  0  0  0  0  0  0  0  0
    1.8417    1.8707   -0.0677 C   0  0  0  0  0  0  0  0  0  0  0  0
   -3.0731   -3.2920   -1.4234 H   0  0  0  0  0  0  0  0  0  0  0  0
   -4.0360   -2.3931    1.0567 H   0  0  0  0  0  0  0  0  0  0  0  0
   -0.7974    0.6797    1.9185 H   0  0  0  0  0  0  0  0  0  0  0  0
    0.3960    0.3421   -1.9547 H   0  0  0  0  0  0  0  0  0  0  0  0
    1.0834   -1.1798   -1.3316 H   0  0  0  0  0  0  0  0  0  0  0  0
    1.7216    1.3345    2.0231 H   0  0  0  0  0  0  0  0  0  0  0  0
    0.6485    2.6483    1.5448 H   0  0  0  0  0  0  0  0  0  0  0  0
    2.6541    0.6452   -1.5531 H   0  0  0  0  0  0  0  0  0  0  0  0
    2.6031   -0.0590   -0.0637 H   0  0  0  0  0  0  0  0  0  0  0  0
    2.8222    2.3167    0.1233 H   0  0  0  0  0  0  0  0  0  0  0  0
    1.3001    2.4886   -0.7923 H   0  0  0  0  0  0  0  0  0  0  0  0
  1  2  1  0  0  0  0
  1  3  1  0  0  0  0
  2  4  2  0  0  0  0
  2  5  1  0  0  0  0
  3  6  2  0  0  0  0
  5  7  2  0  0  0  0
  5  8  1  0  0  0  0
  7  9  1  0  0  0  0
  8 10  1  0  0  0  0
  9 11  1  0  0  0  0
  4  6  1  0  0  0  0
 10 11  1  0  0  0  0
  3 12  1  0  0  0  0
  6 13  1  0  0  0  0
  7 14  1  0  0  0  0
  8 15  1  0  0  0  0
  8 16  1  0  0  0  0
  9 17  1  0  0  0  0
  9 18  1  0  0  0  0
 10 19  1  0  0  0  0
 10 20  1  0  0  0  0
 11 21  1  0  0  0  0
 11 22  1  0  0  0  0
M  CHG  1  10   1
M  END
>  <Column 1>
C1=C(c2ncco2)C[NH2+]CC1 ZINC000000004597

>  <Total Molweight>
151.188

>  <cLogP>
-0.0749

>  <cLogS>
-0.587

>  <H-Acceptors>
2

>  <H-Donors>
1

>  <Total Surface Area>
121.94

>  <MMFF94 Energy>
13.117

$$$$
Compound 45
Actelion Java MolfileCreator 1.0

 21 22  0  0  1  0  0  0  0  0999 V2000
   -0.2460    2.8733   -0.1640 S   0  0  0  0  0  0  0  0  0  0  0  0
   -0.3459    1.1844   -0.4549 C   0  0  0  0  0  0  0  0  0  0  0  0
   -1.3939    3.2197   -1.3814 C   0  0  0  0  0  0  0  0  0  0  0  0
   -1.2527    0.9039   -1.4623 C   0  0  0  0  0  0  0  0  0  0  0  0
    0.4807    0.2378    0.3648 C   0  0  0  0  0  0  0  0  0  0  0  0
   -1.8540    2.0788   -1.9980 C   0  0  0  0  0  0  0  0  0  0  0  0
   -0.4293   -0.5702    1.1680 N   0  0  0  0  0  0  0  0  0  0  0  0
    1.3671   -0.6586   -0.5385 C   0  0  0  0  0  0  0  0  0  0  0  0
   -0.0005   -1.7015    1.8157 C   0  0  0  0  0  0  0  0  0  0  0  0
    1.9016   -0.3077   -1.5861 O   0  0  0  0  0  0  0  0  0  0  0  0
    1.6469   -1.9042   -0.0126 N   0  0  0  0  0  0  0  0  0  0  0  0
   -0.6369   -2.1782    2.7491 O   0  0  0  0  0  0  0  0  0  0  0  0
    1.3721   -2.2191    1.3788 C   0  0  0  0  0  0  0  0  0  0  0  0
   -1.6754    4.2433   -1.5883 H   0  0  0  0  0  0  0  0  0  0  0  0
   -1.4694   -0.1010   -1.8065 H   0  0  0  0  0  0  0  0  0  0  0  0
    1.1507    0.7596    1.0588 H   0  0  0  0  0  0  0  0  0  0  0  0
   -2.5842    2.0864   -2.7981 H   0  0  0  0  0  0  0  0  0  0  0  0
   -1.3077   -0.1780    1.4827 H   0  0  0  0  0  0  0  0  0  0  0  0
    2.2641   -2.4882   -0.5632 H   0  0  0  0  0  0  0  0  0  0  0  0
    2.1437   -1.7533    1.9988 H   0  0  0  0  0  0  0  0  0  0  0  0
    1.4030   -3.3062    1.4888 H   0  0  0  0  0  0  0  0  0  0  0  0
  1  2  1  0  0  0  0
  1  3  1  0  0  0  0
  2  4  2  0  0  0  0
  2  5  1  0  0  0  0
  3  6  2  0  0  0  0
  5  7  1  0  0  0  0
  5  8  1  0  0  0  0
  7  9  1  0  0  0  0
  8 10  2  0  0  0  0
  8 11  1  0  0  0  0
  9 12  2  0  0  0  0
  9 13  1  0  0  0  0
  4  6  1  0  0  0  0
 11 13  1  0  0  0  0
  3 14  1  0  0  0  0
  4 15  1  0  0  0  0
  5 16  1  0  0  0  0
  6 17  1  0  0  0  0
  7 18  1  0  0  0  0
 11 19  1  0  0  0  0
 13 20  1  0  0  0  0
 13 21  1  0  0  0  0
M  END
>  <Column 1>
O=C1CNC(=O)[C@@H](c2cccs2)N1 ZINC000000004710

>  <Total Molweight>
196.23

>  <cLogP>
-0.3126

>  <cLogS>
-1.168

>  <H-Acceptors>
4

>  <H-Donors>
2

>  <Total Surface Area>
140.38

>  <MMFF94 Energy>
69.828

$$$$
Compound 46
Actelion Java MolfileCreator 1.0

 38 39  0  0  0  0  0  0  0  0999 V2000
   -1.4454   -1.6061    1.6865 S   0  0  0  0  0  0  0  0  0  0  0  0
   -1.9953   -2.0635    0.4326 O   0  0  0  0  0  0  0  0  0  0  0  0
   -0.9476   -2.5385    2.6714 O   0  0  0  0  0  0  0  0  0  0  0  0
   -0.2301   -0.4840    1.3504 N   0  0  0  0  0  0  0  0  0  0  0  0
   -2.5797   -0.6031    2.4491 N   0  0  0  0  0  0  0  0  0  0  0  0
   -0.6278    0.5813    0.3591 C   0  0  0  0  0  0  0  0  0  0  0  0
    1.0624   -1.1267    0.9294 C   0  0  0  0  0  0  0  0  0  0  0  0
   -2.1350   -0.0464    3.7453 C   0  0  0  0  0  0  0  0  0  0  0  0
   -3.9207   -1.2179    2.5549 C   0  0  0  0  0  0  0  0  0  0  0  0
    0.4922    1.6347    0.2390 C   0  0  0  0  0  0  0  0  0  0  0  0
    2.1770   -0.0648    0.8081 C   0  0  0  0  0  0  0  0  0  0  0  0
    1.7738    1.0011   -0.1255 N   0  0  0  0  0  0  0  0  0  0  0  0
    2.0372    0.8391   -1.4816 C   0  0  0  0  0  0  0  0  0  0  0  0
    1.0460    1.0580   -2.3651 N   0  0  0  0  0  0  0  0  0  0  0  0
    3.2989    0.4864   -1.9219 C   0  0  0  0  0  0  0  0  0  0  0  0
    1.3121    0.9006   -3.6762 C   0  0  0  0  0  0  0  0  0  0  0  0
    3.4781    0.3467   -3.2790 C   0  0  0  0  0  0  0  0  0  0  0  0
    2.5018    0.5354   -4.1781 N   0  0  0  0  0  0  0  0  0  0  0  0
    0.1840    1.1011   -4.6383 C   0  0  0  0  0  0  0  0  0  0  0  0
   -1.5368    1.0863    0.7007 H   0  0  0  0  0  0  0  0  0  0  0  0
   -0.8292    0.1219   -0.6149 H   0  0  0  0  0  0  0  0  0  0  0  0
    1.3717   -1.8604    1.6811 H   0  0  0  0  0  0  0  0  0  0  0  0
    0.9229   -1.6418   -0.0285 H   0  0  0  0  0  0  0  0  0  0  0  0
   -2.0736   -0.8253    4.5113 H   0  0  0  0  0  0  0  0  0  0  0  0
   -1.1653    0.4498    3.6509 H   0  0  0  0  0  0  0  0  0  0  0  0
   -2.8485    0.7137    4.0809 H   0  0  0  0  0  0  0  0  0  0  0  0
   -3.8926   -2.1200    3.1736 H   0  0  0  0  0  0  0  0  0  0  0  0
   -4.3100   -1.4637    1.5627 H   0  0  0  0  0  0  0  0  0  0  0  0
   -4.6222   -0.5087    3.0066 H   0  0  0  0  0  0  0  0  0  0  0  0
    0.6229    2.1217    1.2144 H   0  0  0  0  0  0  0  0  0  0  0  0
    0.2094    2.4317   -0.4591 H   0  0  0  0  0  0  0  0  0  0  0  0
    3.1195   -0.5452    0.5268 H   0  0  0  0  0  0  0  0  0  0  0  0
    2.3447    0.3898    1.7931 H   0  0  0  0  0  0  0  0  0  0  0  0
    4.1301    0.3513   -1.2448 H   0  0  0  0  0  0  0  0  0  0  0  0
    4.4451    0.0752   -3.6911 H   0  0  0  0  0  0  0  0  0  0  0  0
    0.5589    1.4528   -5.6043 H   0  0  0  0  0  0  0  0  0  0  0  0
   -0.3449    0.1555   -4.7876 H   0  0  0  0  0  0  0  0  0  0  0  0
   -0.5222    1.8437   -4.2543 H   0  0  0  0  0  0  0  0  0  0  0  0
  1  2  2  0  0  0  0
  1  3  2  0  0  0  0
  1  4  1  0  0  0  0
  1  5  1  0  0  0  0
  4  6  1  0  0  0  0
  4  7  1  0  0  0  0
  5  8  1  0  0  0  0
  5  9  1  0  0  0  0
  6 10  1  0  0  0  0
  7 11  1  0  0  0  0
 10 12  1  0  0  0  0
 12 13  1  0  0  0  0
 13 14  2  0  0  0  0
 13 15  1  0  0  0  0
 14 16  1  0  0  0  0
 15 17  2  0  0  0  0
 16 18  2  0  0  0  0
 16 19  1  0  0  0  0
 11 12  1  0  0  0  0
 17 18  1  0  0  0  0
  6 20  1  0  0  0  0
  6 21  1  0  0  0  0
  7 22  1  0  0  0  0
  7 23  1  0  0  0  0
  8 24  1  0  0  0  0
  8 25  1  0  0  0  0
  8 26  1  0  0  0  0
  9 27  1  0  0  0  0
  9 28  1  0  0  0  0
  9 29  1  0  0  0  0
 10 30  1  0  0  0  0
 10 31  1  0  0  0  0
 11 32  1  0  0  0  0
 11 33  1  0  0  0  0
 15 34  1  0  0  0  0
 17 35  1  0  0  0  0
 19 36  1  0  0  0  0
 19 37  1  0  0  0  0
 19 38  1  0  0  0  0
M  END
>  <Column 1>
Cc1nccc(N2CCN(S(=O)(=O)N(C)C)CC2)n1 ZINC000000004728

>  <Total Molweight>
285.371

>  <cLogP>
-0.0641

>  <cLogS>
-0.105

>  <H-Acceptors>
7

>  <H-Donors>
0

>  <Total Surface Area>
208.58

>  <MMFF94 Energy>
-149.26

$$$$
Compound 47
Actelion Java MolfileCreator 1.0

 22 23  0  0  0  0  0  0  0  0999 V2000
   -0.8423   -1.1794   -1.0951 S   0  0  0  0  0  0  0  0  0  0  0  0
   -2.2767   -1.3060   -1.2796 O   0  0  0  0  0  0  0  0  0  0  0  0
    0.0846   -2.0227   -1.8302 O   0  0  0  0  0  0  0  0  0  0  0  0
   -0.3954    0.5181   -1.3722 C   0  0  0  0  0  0  0  0  0  0  0  0
   -0.5571   -1.5349    0.6013 C   0  0  0  0  0  0  0  0  0  0  0  0
   -0.6398    1.3488   -0.3236 N   0  0  0  0  0  0  0  0  0  0  0  0
    0.1917    0.8981   -2.5694 C   0  0  0  0  0  0  0  0  0  0  0  0
    1.0594   -1.5315    1.1605 S   0  0  0  0  0  0  0  0  0  0  0  0
   -1.4040   -1.8275    1.6464 C   0  0  0  0  0  0  0  0  0  0  0  0
   -0.2887    2.6390   -0.5028 C   0  0  0  0  0  0  0  0  0  0  0  0
    0.5414    2.2363   -2.7114 C   0  0  0  0  0  0  0  0  0  0  0  0
    0.5046   -1.9243    2.7367 C   0  0  0  0  0  0  0  0  0  0  0  0
   -0.7927   -2.0507    2.8657 N   0  0  0  0  0  0  0  0  0  0  0  0
    0.2972    3.1233   -1.6641 C   0  0  0  0  0  0  0  0  0  0  0  0
    1.3566   -2.0867    3.7526 N   0  0  0  0  0  0  0  0  0  0  0  0
    0.3723    0.1826   -3.3648 H   0  0  0  0  0  0  0  0  0  0  0  0
   -2.4833   -1.8907    1.5708 H   0  0  0  0  0  0  0  0  0  0  0  0
   -0.4943    3.2992    0.3360 H   0  0  0  0  0  0  0  0  0  0  0  0
    1.0016    2.5886   -3.6311 H   0  0  0  0  0  0  0  0  0  0  0  0
    0.5592    4.1728   -1.7515 H   0  0  0  0  0  0  0  0  0  0  0  0
    2.3566   -1.9959    3.6436 H   0  0  0  0  0  0  0  0  0  0  0  0
    0.9989   -2.3224    4.6693 H   0  0  0  0  0  0  0  0  0  0  0  0
  1  2  2  0  0  0  0
  1  3  2  0  0  0  0
  1  4  1  0  0  0  0
  1  5  1  0  0  0  0
  4  6  2  0  0  0  0
  4  7  1  0  0  0  0
  5  8  1  0  0  0  0
  5  9  2  0  0  0  0
  6 10  1  0  0  0  0
  7 11  2  0  0  0  0
  8 12  1  0  0  0  0
  9 13  1  0  0  0  0
 10 14  2  0  0  0  0
 12 15  1  0  0  0  0
 11 14  1  0  0  0  0
 12 13  2  0  0  0  0
  7 16  1  0  0  0  0
  9 17  1  0  0  0  0
 10 18  1  0  0  0  0
 11 19  1  0  0  0  0
 14 20  1  0  0  0  0
 15 21  1  0  0  0  0
 15 22  1  0  0  0  0
M  END
>  <Column 1>
Nc1ncc(S(=O)(=O)c2ccccn2)s1 ZINC000000004842

>  <Total Molweight>
241.295

>  <cLogP>
0.614

>  <cLogS>
-1.946

>  <H-Acceptors>
5

>  <H-Donors>
1

>  <Total Surface Area>
163.58

>  <MMFF94 Energy>
48.28

$$$$
Compound 48
Actelion Java MolfileCreator 1.0

 25 27  0  0  0  0  0  0  0  0999 V2000
    2.5013    0.0806   -0.0000 O   0  0  0  0  0  0  0  0  0  0  0  0
    3.3653    1.0820   -0.4386 N   0  0  0  0  0  0  0  0  0  0  0  0
    1.2342    0.5621   -0.1745 C   0  0  0  0  0  0  0  0  0  0  0  0
    2.5377    2.0504   -0.8324 C   0  0  0  0  0  0  0  0  0  0  0  0
    1.2138    1.7713   -0.6917 N   0  0  0  0  0  0  0  0  0  0  0  0
   -0.0380   -0.2469    0.1744 C   0  0  0  0  0  0  0  0  0  0  0  0
    2.8752    3.2319   -1.3377 N   0  0  0  0  0  0  0  0  0  0  0  0
   -0.7179   -0.9028   -1.0267 C   0  0  0  0  0  0  0  0  0  0  0  0
    0.0786   -1.1649    1.4242 C   0  0  0  0  0  0  0  0  0  0  0  0
   -1.0585    0.5126    1.0602 C   0  0  0  0  0  0  0  0  0  0  0  0
   -1.7134   -1.9452   -0.5135 C   0  0  0  0  0  0  0  0  0  0  0  0
   -1.3479   -0.8006    1.7316 N   0  0  0  0  0  0  0  0  0  0  0  0
   -2.2743   -1.5720    0.8688 C   0  0  0  0  0  0  0  0  0  0  0  0
    2.1676    3.9007   -1.6049 H   0  0  0  0  0  0  0  0  0  0  0  0
    3.8423    3.4937   -1.4628 H   0  0  0  0  0  0  0  0  0  0  0  0
   -1.2378   -0.1474   -1.6283 H   0  0  0  0  0  0  0  0  0  0  0  0
    0.0117   -1.3930   -1.6818 H   0  0  0  0  0  0  0  0  0  0  0  0
    0.7803   -0.8187    2.1959 H   0  0  0  0  0  0  0  0  0  0  0  0
    0.2827   -2.2278    1.2568 H   0  0  0  0  0  0  0  0  0  0  0  0
   -0.6273    1.2553    1.7456 H   0  0  0  0  0  0  0  0  0  0  0  0
   -1.9028    0.9894    0.5494 H   0  0  0  0  0  0  0  0  0  0  0  0
   -2.5224   -2.0966   -1.2365 H   0  0  0  0  0  0  0  0  0  0  0  0
   -1.1936   -2.9086   -0.4295 H   0  0  0  0  0  0  0  0  0  0  0  0
   -3.2037   -1.0013    0.7471 H   0  0  0  0  0  0  0  0  0  0  0  0
   -2.5548   -2.4921    1.3950 H   0  0  0  0  0  0  0  0  0  0  0  0
  1  2  1  0  0  0  0
  1  3  1  0  0  0  0
  2  4  2  0  0  0  0
  3  5  2  0  0  0  0
  3  6  1  0  0  0  0
  4  7  1  0  0  0  0
  6  8  1  0  0  0  0
  6  9  1  0  0  0  0
  6 10  1  0  0  0  0
  8 11  1  0  0  0  0
  9 12  1  0  0  0  0
 11 13  1  0  0  0  0
  4  5  1  0  0  0  0
 10 12  1  0  0  0  0
 12 13  1  0  0  0  0
  7 14  1  0  0  0  0
  7 15  1  0  0  0  0
  8 16  1  0  0  0  0
  8 17  1  0  0  0  0
  9 18  1  0  0  0  0
  9 19  1  0  0  0  0
 10 20  1  0  0  0  0
 10 21  1  0  0  0  0
 11 22  1  0  0  0  0
 11 23  1  0  0  0  0
 13 24  1  0  0  0  0
 13 25  1  0  0  0  0
M  END
>  <Column 1>
Nc1noc(C23CCCN(C2)C3)n1 ZINC000000004880

>  <Total Molweight>
180.21

>  <cLogP>
-0.0969

>  <cLogS>
-1.236

>  <H-Acceptors>
5

>  <H-Donors>
1

>  <Total Surface Area>
131.5

>  <MMFF94 Energy>
-42.651

$$$$
Compound 49
Actelion Java MolfileCreator 1.0

 20 21  0  0  1  0  0  0  0  0999 V2000
   -1.6785   -1.9184   -1.1987 O   0  0  0  0  0  0  0  0  0  0  0  0
   -1.1570   -1.1283   -0.4309 C   0  0  0  0  0  0  0  0  0  0  0  0
   -0.1935   -1.4129    0.5159 N   0  0  0  0  0  0  0  0  0  0  0  0
   -1.3312    0.4040   -0.3514 C   0  0  0  0  0  0  0  0  0  0  0  0
    0.4225   -2.6483    0.6674 O   0  0  0  0  0  0  0  0  0  0  0  0
    0.3594   -0.2289    1.1396 C   0  0  0  0  0  0  0  0  0  0  0  0
   -0.4136    1.0971   -1.2906 N   0  0  0  0  0  0  0  0  0  0  0  0
   -0.8650    0.6796    1.0867 C   0  0  0  0  0  0  0  0  0  0  0  0
    1.4574    0.3980    0.2715 C   0  0  0  0  0  0  0  0  0  0  0  0
    0.9798    0.6359   -1.1722 C   0  0  0  0  0  0  0  0  0  0  0  0
   -2.3723    0.6929   -0.5146 H   0  0  0  0  0  0  0  0  0  0  0  0
    0.0027   -3.1706   -0.0475 H   0  0  0  0  0  0  0  0  0  0  0  0
    0.6930   -0.4404    2.1591 H   0  0  0  0  0  0  0  0  0  0  0  0
   -0.4551    2.1005   -1.1117 H   0  0  0  0  0  0  0  0  0  0  0  0
   -0.6434    1.7333    1.2872 H   0  0  0  0  0  0  0  0  0  0  0  0
   -1.6280    0.3469    1.8026 H   0  0  0  0  0  0  0  0  0  0  0  0
    2.3399   -0.2521    0.2522 H   0  0  0  0  0  0  0  0  0  0  0  0
    1.7650    1.3528    0.7157 H   0  0  0  0  0  0  0  0  0  0  0  0
    1.0875   -0.2926   -1.7470 H   0  0  0  0  0  0  0  0  0  0  0  0
    1.6404    1.3607   -1.6618 H   0  0  0  0  0  0  0  0  0  0  0  0
  1  2  2  0  0  0  0
  2  3  1  0  0  0  0
  2  4  1  0  0  0  0
  3  5  1  0  0  0  0
  3  6  1  0  0  0  0
  4  7  1  0  0  0  0
  4  8  1  0  0  0  0
  6  9  1  0  0  0  0
  7 10  1  0  0  0  0
  6  8  1  0  0  0  0
  9 10  1  0  0  0  0
  4 11  1  0  0  0  0
  5 12  1  0  0  0  0
  6 13  1  0  0  0  0
  7 14  1  0  0  0  0
  8 15  1  0  0  0  0
  8 16  1  0  0  0  0
  9 17  1  0  0  0  0
  9 18  1  0  0  0  0
 10 19  1  0  0  0  0
 10 20  1  0  0  0  0
M  END
>  <Column 1>
O=C1[C@H]2C[C@H](CC[NH2+]2)N1[O-] ZINC000000004888

>  <Total Molweight>
142.157

>  <cLogP>
-1.4333

>  <cLogS>
-0.702

>  <H-Acceptors>
4

>  <H-Donors>
2

>  <Total Surface Area>
98.64

>  <MMFF94 Energy>
70.864

$$$$
Compound 50
Actelion Java MolfileCreator 1.0

 27 29  0  0  0  0  0  0  0  0999 V2000
   -3.0477    0.7212    2.2450 N   0  0  0  0  0  0  0  0  0  0  0  0
   -1.8876    1.2442    2.7179 N   0  0  0  0  0  0  0  0  0  0  0  0
   -3.0476    0.0307    1.0882 C   0  0  0  0  0  0  0  0  0  0  0  0
   -0.7662    1.0509    2.0043 C   0  0  0  0  0  0  0  0  0  0  0  0
   -1.9494   -0.1809    0.3520 N   0  0  0  0  0  0  0  0  0  0  0  0
   -4.2218   -0.4911    0.6222 N   0  0  0  0  0  0  0  0  0  0  0  0
   -0.7904    0.3404    0.8224 C   0  0  0  0  0  0  0  0  0  0  0  0
    0.4321    0.0989   -0.0071 C   0  0  0  0  0  0  0  0  0  0  0  0
    1.7768    0.6540    0.4553 C   0  0  0  0  0  0  0  0  0  0  0  0
    0.7841   -1.3931   -0.1585 C   0  0  0  0  0  0  0  0  0  0  0  0
    0.3468    0.7146   -1.4166 C   0  0  0  0  0  0  0  0  0  0  0  0
    2.5457    0.1237   -0.7003 N   0  0  0  0  0  0  0  0  0  0  0  0
    2.2328   -1.3313   -0.6442 C   0  0  0  0  0  0  0  0  0  0  0  0
    1.8107    0.7034   -1.8587 C   0  0  0  0  0  0  0  0  0  0  0  0
    0.1276    1.4886    2.4269 H   0  0  0  0  0  0  0  0  0  0  0  0
   -4.1966   -1.0020   -0.2425 H   0  0  0  0  0  0  0  0  0  0  0  0
   -5.0586   -0.3442    1.1591 H   0  0  0  0  0  0  0  0  0  0  0  0
    1.8192    1.7490    0.5114 H   0  0  0  0  0  0  0  0  0  0  0  0
    2.1313    0.2444    1.4095 H   0  0  0  0  0  0  0  0  0  0  0  0
    0.1324   -1.9076   -0.8733 H   0  0  0  0  0  0  0  0  0  0  0  0
    0.7256   -1.9213    0.8012 H   0  0  0  0  0  0  0  0  0  0  0  0
   -0.2909    0.1324   -2.0910 H   0  0  0  0  0  0  0  0  0  0  0  0
   -0.0346    1.7428   -1.3859 H   0  0  0  0  0  0  0  0  0  0  0  0
    2.3756   -1.8271   -1.6107 H   0  0  0  0  0  0  0  0  0  0  0  0
    2.8988   -1.8228    0.0749 H   0  0  0  0  0  0  0  0  0  0  0  0
    2.1626    1.7253   -2.0430 H   0  0  0  0  0  0  0  0  0  0  0  0
    1.9687    0.1340   -2.7813 H   0  0  0  0  0  0  0  0  0  0  0  0
  1  2  2  0  0  0  0
  1  3  1  0  0  0  0
  2  4  1  0  0  0  0
  3  5  2  0  0  0  0
  3  6  1  0  0  0  0
  4  7  2  0  0  0  0
  7  8  1  0  0  0  0
  8  9  1  0  0  0  0
  8 10  1  0  0  0  0
  8 11  1  0  0  0  0
  9 12  1  0  0  0  0
 10 13  1  0  0  0  0
 11 14  1  0  0  0  0
  5  7  1  0  0  0  0
 12 13  1  0  0  0  0
 12 14  1  0  0  0  0
  4 15  1  0  0  0  0
  6 16  1  0  0  0  0
  6 17  1  0  0  0  0
  9 18  1  0  0  0  0
  9 19  1  0  0  0  0
 10 20  1  0  0  0  0
 10 21  1  0  0  0  0
 11 22  1  0  0  0  0
 11 23  1  0  0  0  0
 13 24  1  0  0  0  0
 13 25  1  0  0  0  0
 14 26  1  0  0  0  0
 14 27  1  0  0  0  0
M  END
>  <Column 1>
Nc1nncc(C23CCN(CC2)C3)n1 ZINC000000005200

>  <Total Molweight>
191.237

>  <cLogP>
-0.6111

>  <cLogS>
-1.047

>  <H-Acceptors>
5

>  <H-Donors>
1

>  <Total Surface Area>
140.57

>  <MMFF94 Energy>
2.1934

$$$$
Compound 51
Actelion Java MolfileCreator 1.0

 24 25  0  0  0  0  0  0  0  0999 V2000
   -2.0571    0.4744   -1.4238 O   0  0  0  0  0  0  0  0  0  0  0  0
   -1.2340   -0.4273   -1.4232 C   0  0  0  0  0  0  0  0  0  0  0  0
   -0.5927   -0.9631   -0.3427 N   0  0  0  0  0  0  0  0  0  0  0  0
   -0.6897   -1.1080   -2.6333 C   0  0  0  0  0  0  0  0  0  0  0  0
    0.2907   -2.0059   -0.6946 O   0  0  0  0  0  0  0  0  0  0  0  0
   -0.7296   -0.6476    1.0636 C   0  0  0  0  0  0  0  0  0  0  0  0
   -0.1080   -2.3640   -2.0218 C   0  0  0  0  0  0  0  0  0  0  0  0
    0.4227    0.1821    1.4998 C   0  0  0  0  0  0  0  0  0  0  0  0
    0.5381    1.5416    1.3264 N   0  0  0  0  0  0  0  0  0  0  0  0
    1.5879   -0.1782    2.1472 C   0  0  0  0  0  0  0  0  0  0  0  0
    1.7302    1.9295    1.8712 C   0  0  0  0  0  0  0  0  0  0  0  0
   -0.3964    2.4306    0.6797 C   0  0  0  0  0  0  0  0  0  0  0  0
    2.3841    0.9112    2.3798 N   0  0  0  0  0  0  0  0  0  0  0  0
   -1.4622   -1.3231   -3.3739 H   0  0  0  0  0  0  0  0  0  0  0  0
    0.0894   -0.4736   -3.0669 H   0  0  0  0  0  0  0  0  0  0  0  0
   -0.7726   -1.5880    1.6231 H   0  0  0  0  0  0  0  0  0  0  0  0
   -1.6731   -0.1152    1.2190 H   0  0  0  0  0  0  0  0  0  0  0  0
    0.7562   -2.7328   -2.5813 H   0  0  0  0  0  0  0  0  0  0  0  0
   -0.8539   -3.1642   -1.9542 H   0  0  0  0  0  0  0  0  0  0  0  0
    1.8919   -1.1697    2.4582 H   0  0  0  0  0  0  0  0  0  0  0  0
    2.0724    2.9564    1.8694 H   0  0  0  0  0  0  0  0  0  0  0  0
   -0.2769    2.3248   -0.4006 H   0  0  0  0  0  0  0  0  0  0  0  0
   -0.1797    3.4604    0.9768 H   0  0  0  0  0  0  0  0  0  0  0  0
   -1.4120    2.1757    0.9892 H   0  0  0  0  0  0  0  0  0  0  0  0
  1  2  2  0  0  0  0
  2  3  1  0  0  0  0
  2  4  1  0  0  0  0
  3  5  1  0  0  0  0
  3  6  1  0  0  0  0
  4  7  1  0  0  0  0
  6  8  1  0  0  0  0
  8  9  1  0  0  0  0
  8 10  2  0  0  0  0
  9 11  1  0  0  0  0
  9 12  1  0  0  0  0
 10 13  1  0  0  0  0
  5  7  1  0  0  0  0
 11 13  2  0  0  0  0
  4 14  1  0  0  0  0
  4 15  1  0  0  0  0
  6 16  1  0  0  0  0
  6 17  1  0  0  0  0
  7 18  1  0  0  0  0
  7 19  1  0  0  0  0
 10 20  1  0  0  0  0
 11 21  1  0  0  0  0
 12 22  1  0  0  0  0
 12 23  1  0  0  0  0
 12 24  1  0  0  0  0
M  END
>  <Column 1>
Cn1cncc1CN1OCCC1=O ZINC000000005245

>  <Total Molweight>
181.194

>  <cLogP>
-1.0507

>  <cLogS>
-0.174

>  <H-Acceptors>
5

>  <H-Donors>
0

>  <Total Surface Area>
139.31

>  <MMFF94 Energy>
1.2386

$$$$
Compound 52
Actelion Java MolfileCreator 1.0

 26 27  0  0  1  0  0  0  0  0999 V2000
    3.3767   -0.4113    0.5759 S   0  0  0  0  0  0  0  0  0  0  0  0
    4.0742    0.8579    0.1769 O   0  0  0  0  0  0  0  0  0  0  0  0
    1.6331   -0.1291    0.3984 C   0  0  0  0  0  0  0  0  0  0  0  0
    3.5739   -1.5884   -0.7846 C   0  0  0  0  0  0  0  0  0  0  0  0
    0.6531   -1.2119    0.6511 C   0  0  0  0  0  0  0  0  0  0  0  0
    1.1541    1.0777    0.0721 C   0  0  0  0  0  0  0  0  0  0  0  0
    1.0079   -2.3431    0.9689 O   0  0  0  0  0  0  0  0  0  0  0  0
   -0.7885   -0.8816    0.5014 C   0  0  0  0  0  0  0  0  0  0  0  0
   -0.1823    1.4147   -0.0758 N   0  0  0  0  0  0  0  0  0  0  0  0
   -1.1735    0.4304    0.1385 C   0  0  0  0  0  0  0  0  0  0  0  0
   -1.7378   -1.8927    0.7268 C   0  0  0  0  0  0  0  0  0  0  0  0
   -0.5969    2.7716   -0.4388 C   0  0  0  0  0  0  0  0  0  0  0  0
   -2.5484    0.6817    0.0108 C   0  0  0  0  0  0  0  0  0  0  0  0
   -3.0933   -1.6111    0.5922 C   0  0  0  0  0  0  0  0  0  0  0  0
   -3.4842   -0.3285    0.2358 C   0  0  0  0  0  0  0  0  0  0  0  0
   -4.7883   -0.0522    0.1046 F   0  0  0  0  0  0  0  0  0  0  0  0
    3.0939   -2.5372   -0.5382 H   0  0  0  0  0  0  0  0  0  0  0  0
    3.1484   -1.1769   -1.7034 H   0  0  0  0  0  0  0  0  0  0  0  0
    4.6424   -1.7638   -0.9333 H   0  0  0  0  0  0  0  0  0  0  0  0
    1.8353    1.9083   -0.1054 H   0  0  0  0  0  0  0  0  0  0  0  0
   -1.4199   -2.8950    1.0070 H   0  0  0  0  0  0  0  0  0  0  0  0
   -1.1491    2.7711   -1.3851 H   0  0  0  0  0  0  0  0  0  0  0  0
   -1.2187    3.2136    0.3479 H   0  0  0  0  0  0  0  0  0  0  0  0
    0.2656    3.4345   -0.5738 H   0  0  0  0  0  0  0  0  0  0  0  0
   -2.9332    1.6578   -0.2637 H   0  0  0  0  0  0  0  0  0  0  0  0
   -3.8422   -2.3782    0.7625 H   0  0  0  0  0  0  0  0  0  0  0  0
  1  2  2  0  0  0  0
  1  3  1  0  0  0  0
  1  4  1  0  0  0  0
  3  5  1  0  0  0  0
  3  6  2  0  0  0  0
  5  7  2  0  0  0  0
  5  8  1  0  0  0  0
  6  9  1  0  0  0  0
  8 10  2  0  0  0  0
  8 11  1  0  0  0  0
  9 12  1  0  0  0  0
 10 13  1  0  0  0  0
 11 14  2  0  0  0  0
 13 15  2  0  0  0  0
 15 16  1  0  0  0  0
  9 10  1  0  0  0  0
 14 15  1  0  0  0  0
  4 17  1  0  0  0  0
  4 18  1  0  0  0  0
  4 19  1  0  0  0  0
  6 20  1  0  0  0  0
 11 21  1  0  0  0  0
 12 22  1  0  0  0  0
 12 23  1  0  0  0  0
 12 24  1  0  0  0  0
 13 25  1  0  0  0  0
 14 26  1  0  0  0  0
M  END
>  <Column 1>
Cn1cc([S@@](C)=O)c(=O)c2ccc(F)cc21 ZINC000000005432

>  <Total Molweight>
239.269

>  <cLogP>
-0.256

>  <cLogS>
-2.572

>  <H-Acceptors>
3

>  <H-Donors>
0

>  <Total Surface Area>
166.11

>  <MMFF94 Energy>
47.661

$$$$
Compound 53
Actelion Java MolfileCreator 1.0

 14 14  0  0  0  0  0  0  0  0999 V2000
    2.3536    1.6470    1.6470 O   0  0  0  0  0  0  0  0  0  0  0  0
    1.4702    1.0445    1.0480 C   0  0  0  0  0  0  0  0  0  0  0  0
    0.3148    0.6426    1.6540 N   0  0  0  0  0  0  0  0  0  0  0  0
    1.5791    0.7297   -0.2786 N   0  0  0  0  0  0  0  0  0  0  0  0
   -0.7116   -0.0331    1.0458 C   0  0  0  0  0  0  0  0  0  0  0  0
    0.6142    0.0584   -0.9803 C   0  0  0  0  0  0  0  0  0  0  0  0
   -1.7187   -0.3571    1.6686 O   0  0  0  0  0  0  0  0  0  0  0  0
   -0.5265   -0.3444   -0.4039 C   0  0  0  0  0  0  0  0  0  0  0  0
   -1.5213   -1.0412   -1.1441 C   0  0  0  0  0  0  0  0  0  0  0  0
   -2.3616   -1.6295   -1.7686 C   0  0  0  0  0  0  0  0  0  0  0  0
    0.2070    0.8611    2.6319 H   0  0  0  0  0  0  0  0  0  0  0  0
    2.4359    1.0265   -0.7329 H   0  0  0  0  0  0  0  0  0  0  0  0
    0.8304   -0.1261   -2.0285 H   0  0  0  0  0  0  0  0  0  0  0  0
   -3.1153   -2.1522   -2.3106 H   0  0  0  0  0  0  0  0  0  0  0  0
  1  2  2  0  0  0  0
  2  3  1  0  0  0  0
  2  4  1  0  0  0  0
  3  5  1  0  0  0  0
  4  6  1  0  0  0  0
  5  7  2  0  0  0  0
  5  8  1  0  0  0  0
  8  9  1  0  0  0  0
  9 10  3  0  0  0  0
  6  8  2  0  0  0  0
  3 11  1  0  0  0  0
  4 12  1  0  0  0  0
  6 13  1  0  0  0  0
 10 14  1  0  0  0  0
M  END
>  <Column 1>
C#Cc1c[nH]c(=O)[nH]c1=O ZINC000000005467

>  <Total Molweight>
136.11

>  <cLogP>
-0.9801

>  <cLogS>
-1.7

>  <H-Acceptors>
4

>  <H-Donors>
2

>  <Total Surface Area>
106.94

>  <MMFF94 Energy>
-70.803

$$$$
Compound 54
Actelion Java MolfileCreator 1.0

 21 21  0  0  0  0  0  0  0  0999 V2000
    1.0117   -3.1935   -2.3359 O   0  0  0  0  0  0  0  0  0  0  0  0
    1.1745   -1.9983   -1.6140 N   0  0  0  0  0  0  0  0  0  0  0  0
    0.0492   -1.6235   -1.0724 C   0  0  0  0  0  0  0  0  0  0  0  0
   -1.1057   -2.3384   -1.2255 N   0  0  0  0  0  0  0  0  0  0  0  0
    0.0365   -0.3617   -0.2710 C   0  0  0  0  0  0  0  0  0  0  0  0
   -0.9021   -0.1819    0.7557 C   0  0  0  0  0  0  0  0  0  0  0  0
    0.9822    0.6385   -0.5500 C   0  0  0  0  0  0  0  0  0  0  0  0
   -0.8902    1.0049    1.4815 C   0  0  0  0  0  0  0  0  0  0  0  0
    0.9763    1.8228    0.1849 C   0  0  0  0  0  0  0  0  0  0  0  0
   -1.7770    1.2347    2.4995 O   0  0  0  0  0  0  0  0  0  0  0  0
    0.0386    2.0060    1.1963 C   0  0  0  0  0  0  0  0  0  0  0  0
    1.8850    2.8075   -0.0800 O   0  0  0  0  0  0  0  0  0  0  0  0
    0.0162    3.1609    1.9298 O   0  0  0  0  0  0  0  0  0  0  0  0
    1.9189   -3.3644   -2.6495 H   0  0  0  0  0  0  0  0  0  0  0  0
   -1.0292   -3.1683   -1.8031 H   0  0  0  0  0  0  0  0  0  0  0  0
   -2.0221   -1.9827   -1.0042 H   0  0  0  0  0  0  0  0  0  0  0  0
   -1.6092   -0.9675    0.9956 H   0  0  0  0  0  0  0  0  0  0  0  0
    1.7070    0.4847   -1.3442 H   0  0  0  0  0  0  0  0  0  0  0  0
   -2.3200    0.4379    2.6257 H   0  0  0  0  0  0  0  0  0  0  0  0
    2.4874    2.5067   -0.7778 H   0  0  0  0  0  0  0  0  0  0  0  0
   -0.7131    3.0403    2.5671 H   0  0  0  0  0  0  0  0  0  0  0  0
  1  2  1  0  0  0  0
  2  3  2  0  0  0  0
  3  4  1  0  0  0  0
  3  5  1  0  0  0  0
  5  6  2  0  0  0  0
  5  7  1  0  0  0  0
  6  8  1  0  0  0  0
  7  9  2  0  0  0  0
  8 10  1  0  0  0  0
  8 11  2  0  0  0  0
  9 12  1  0  0  0  0
 11 13  1  0  0  0  0
  9 11  1  0  0  0  0
  1 14  1  0  0  0  0
  4 15  1  0  0  0  0
  4 16  1  0  0  0  0
  6 17  1  0  0  0  0
  7 18  1  0  0  0  0
 10 19  1  0  0  0  0
 12 20  1  0  0  0  0
 13 21  1  0  0  0  0
M  END
>  <Column 1>
N/C(=N\O)c1cc(O)c(O)c(O)c1 ZINC000000005721

>  <Total Molweight>
184.151

>  <cLogP>
0.3312

>  <cLogS>
-1.192

>  <H-Acceptors>
6

>  <H-Donors>
5

>  <Total Surface Area>
130.15

>  <MMFF94 Energy>
2.6654

$$$$
Compound 55
Actelion Java MolfileCreator 1.0

 35 36  0  0  0  0  0  0  0  0999 V2000
   -2.0089   -1.2853    2.9743 S   0  0  0  0  0  0  0  0  0  0  0  0
   -1.1199   -1.5368    4.0826 O   0  0  0  0  0  0  0  0  0  0  0  0
   -3.2693   -0.6060    3.1474 O   0  0  0  0  0  0  0  0  0  0  0  0
   -1.1397   -0.5393    1.7602 N   0  0  0  0  0  0  0  0  0  0  0  0
   -2.3003   -2.7863    2.2876 N   0  0  0  0  0  0  0  0  0  0  0  0
   -1.8662   -0.0951    0.5452 C   0  0  0  0  0  0  0  0  0  0  0  0
    0.1781   -1.1416    1.4099 C   0  0  0  0  0  0  0  0  0  0  0  0
   -3.5816   -2.9722    1.5982 C   0  0  0  0  0  0  0  0  0  0  0  0
   -1.0288    0.9375   -0.2352 C   0  0  0  0  0  0  0  0  0  0  0  0
    1.0425   -0.1356    0.6278 C   0  0  0  0  0  0  0  0  0  0  0  0
    0.3166    0.4155   -0.5363 N   0  0  0  0  0  0  0  0  0  0  0  0
    1.1015    1.0846   -1.4746 C   0  0  0  0  0  0  0  0  0  0  0  0
    2.4080    1.2738   -1.2070 N   0  0  0  0  0  0  0  0  0  0  0  0
    0.5747    1.5139   -2.6788 C   0  0  0  0  0  0  0  0  0  0  0  0
    3.1649    1.9204   -2.1143 C   0  0  0  0  0  0  0  0  0  0  0  0
    1.4262    2.1519   -3.5530 C   0  0  0  0  0  0  0  0  0  0  0  0
    2.7232    2.3724   -3.2977 N   0  0  0  0  0  0  0  0  0  0  0  0
    4.6157    2.1038   -1.7980 C   0  0  0  0  0  0  0  0  0  0  0  0
   -2.1356   -3.4914    3.0083 H   0  0  0  0  0  0  0  0  0  0  0  0
   -2.8209    0.3680    0.8134 H   0  0  0  0  0  0  0  0  0  0  0  0
   -2.0649   -0.9584   -0.0999 H   0  0  0  0  0  0  0  0  0  0  0  0
    0.7235   -1.4322    2.3135 H   0  0  0  0  0  0  0  0  0  0  0  0
    0.0159   -2.0396    0.8016 H   0  0  0  0  0  0  0  0  0  0  0  0
   -3.7632   -2.1960    0.8530 H   0  0  0  0  0  0  0  0  0  0  0  0
   -4.4026   -2.9966    2.3203 H   0  0  0  0  0  0  0  0  0  0  0  0
   -3.5622   -3.9364    1.0814 H   0  0  0  0  0  0  0  0  0  0  0  0
   -0.9313    1.8561    0.3577 H   0  0  0  0  0  0  0  0  0  0  0  0
   -1.5865    1.1874   -1.1432 H   0  0  0  0  0  0  0  0  0  0  0  0
    1.9506   -0.6638    0.3110 H   0  0  0  0  0  0  0  0  0  0  0  0
    1.3375    0.6857    1.2942 H   0  0  0  0  0  0  0  0  0  0  0  0
   -0.4529    1.3402   -2.9613 H   0  0  0  0  0  0  0  0  0  0  0  0
    1.0749    2.5068   -4.5172 H   0  0  0  0  0  0  0  0  0  0  0  0
    5.0029    3.0094   -2.2751 H   0  0  0  0  0  0  0  0  0  0  0  0
    4.7658    2.1953   -0.7178 H   0  0  0  0  0  0  0  0  0  0  0  0
    5.1836    1.2426   -2.1615 H   0  0  0  0  0  0  0  0  0  0  0  0
  1  2  2  0  0  0  0
  1  3  2  0  0  0  0
  1  4  1  0  0  0  0
  1  5  1  0  0  0  0
  4  6  1  0  0  0  0
  4  7  1  0  0  0  0
  5  8  1  0  0  0  0
  6  9  1  0  0  0  0
  7 10  1  0  0  0  0
  9 11  1  0  0  0  0
 11 12  1  0  0  0  0
 12 13  2  0  0  0  0
 12 14  1  0  0  0  0
 13 15  1  0  0  0  0
 14 16  2  0  0  0  0
 15 17  2  0  0  0  0
 15 18  1  0  0  0  0
 10 11  1  0  0  0  0
 16 17  1  0  0  0  0
  5 19  1  0  0  0  0
  6 20  1  0  0  0  0
  6 21  1  0  0  0  0
  7 22  1  0  0  0  0
  7 23  1  0  0  0  0
  8 24  1  0  0  0  0
  8 25  1  0  0  0  0
  8 26  1  0  0  0  0
  9 27  1  0  0  0  0
  9 28  1  0  0  0  0
 10 29  1  0  0  0  0
 10 30  1  0  0  0  0
 14 31  1  0  0  0  0
 16 32  1  0  0  0  0
 18 33  1  0  0  0  0
 18 34  1  0  0  0  0
 18 35  1  0  0  0  0
M  END
>  <Column 1>
CNS(=O)(=O)N1CCN(c2ccnc(C)n2)CC1 ZINC000000006024

>  <Total Molweight>
271.344

>  <cLogP>
-0.1573

>  <cLogS>
-0.519

>  <H-Acceptors>
7

>  <H-Donors>
1

>  <Total Surface Area>
197.48

>  <MMFF94 Energy>
-166.87

$$$$
Compound 56
Actelion Java MolfileCreator 1.0

 29 30  0  0  0  0  0  0  0  0999 V2000
    1.5792   -2.9230   -0.0000 N   0  0  0  0  0  0  0  0  0  0  0  0
    1.1354   -2.0621    0.9049 N   0  0  0  0  0  0  0  0  0  0  0  0
    1.1602   -2.4246   -1.1717 N   0  0  0  0  0  0  0  0  0  0  0  0
    0.4642   -1.0725    0.2217 C   0  0  0  0  0  0  0  0  0  0  0  0
    0.4542   -1.2815   -1.1059 N   0  0  0  0  0  0  0  0  0  0  0  0
    1.4601   -3.0730   -2.4268 C   0  0  0  0  0  0  0  0  0  0  0  0
   -0.1436    0.0104    0.9351 C   0  0  0  0  0  0  0  0  0  0  0  0
    2.7592   -2.5734   -3.0314 C   0  0  0  0  0  0  0  0  0  0  0  0
   -0.1944    0.1070    2.2789 C   0  0  0  0  0  0  0  0  0  0  0  0
   -0.7486    1.0798    0.0457 C   0  0  0  0  0  0  0  0  0  0  0  0
   -0.8862    1.2511    2.9620 C   0  0  0  0  0  0  0  0  0  0  0  0
   -1.0667    2.3444    0.7518 N   0  0  0  0  0  0  0  0  0  0  0  0
   -1.7731    2.0691    2.0090 C   0  0  0  0  0  0  0  0  0  0  0  0
   -1.8488    3.2272   -0.1101 C   0  0  0  0  0  0  0  0  0  0  0  0
    1.5096   -4.1516   -2.2422 H   0  0  0  0  0  0  0  0  0  0  0  0
    0.6213   -2.8867   -3.1062 H   0  0  0  0  0  0  0  0  0  0  0  0
    3.6040   -2.7586   -2.3595 H   0  0  0  0  0  0  0  0  0  0  0  0
    2.9582   -3.0822   -3.9795 H   0  0  0  0  0  0  0  0  0  0  0  0
    2.7163   -1.4959   -3.2236 H   0  0  0  0  0  0  0  0  0  0  0  0
    0.2622   -0.6488    2.9124 H   0  0  0  0  0  0  0  0  0  0  0  0
   -1.6555    0.6680   -0.4192 H   0  0  0  0  0  0  0  0  0  0  0  0
   -0.0444    1.3329   -0.7574 H   0  0  0  0  0  0  0  0  0  0  0  0
   -0.1232    1.8984    3.4110 H   0  0  0  0  0  0  0  0  0  0  0  0
   -1.5062    0.8635    3.7785 H   0  0  0  0  0  0  0  0  0  0  0  0
   -2.7106    1.5293    1.8176 H   0  0  0  0  0  0  0  0  0  0  0  0
   -2.0382    3.0076    2.5116 H   0  0  0  0  0  0  0  0  0  0  0  0
   -1.3004    3.4501   -1.0320 H   0  0  0  0  0  0  0  0  0  0  0  0
   -2.8176    2.7921   -0.3810 H   0  0  0  0  0  0  0  0  0  0  0  0
   -2.0302    4.1865    0.3872 H   0  0  0  0  0  0  0  0  0  0  0  0
  1  2  2  0  0  0  0
  1  3  1  0  0  0  0
  2  4  1  0  0  0  0
  3  5  1  0  0  0  0
  3  6  1  0  0  0  0
  4  7  1  0  0  0  0
  6  8  1  0  0  0  0
  7  9  2  0  0  0  0
  7 10  1  0  0  0  0
  9 11  1  0  0  0  0
 10 12  1  0  0  0  0
 11 13  1  0  0  0  0
 12 14  1  0  0  0  0
  4  5  2  0  0  0  0
 12 13  1  0  0  0  0
  6 15  1  0  0  0  0
  6 16  1  0  0  0  0
  8 17  1  0  0  0  0
  8 18  1  0  0  0  0
  8 19  1  0  0  0  0
  9 20  1  0  0  0  0
 10 21  1  0  0  0  0
 10 22  1  0  0  0  0
 11 23  1  0  0  0  0
 11 24  1  0  0  0  0
 13 25  1  0  0  0  0
 13 26  1  0  0  0  0
 14 27  1  0  0  0  0
 14 28  1  0  0  0  0
 14 29  1  0  0  0  0
M  END
>  <Column 1>
CCn1nnc(C2=CCCN(C)C2)n1 ZINC000000006302

>  <Total Molweight>
193.253

>  <cLogP>
0.2964

>  <cLogS>
0.763

>  <H-Acceptors>
5

>  <H-Donors>
0

>  <Total Surface Area>
159.81

>  <MMFF94 Energy>
30.402

$$$$
Compound 57
Actelion Java MolfileCreator 1.0

 26 27  0  0  0  0  0  0  0  0999 V2000
    1.9249    2.5672    0.9621 O   0  0  0  0  0  0  0  0  0  0  0  0
    1.7803    1.3870    1.3092 N   0  0  0  0  0  0  0  0  0  0  0  0
    2.3148    0.8580    2.2922 O   0  0  0  0  0  0  0  0  0  0  0  0
    0.8738    0.5688    0.5174 C   0  0  0  0  0  0  0  0  0  0  0  0
   -0.4443    1.0246    0.3324 C   0  0  0  0  0  0  0  0  0  0  0  0
    1.3263   -0.6686   -0.0081 C   0  0  0  0  0  0  0  0  0  0  0  0
   -0.9011    2.2716    0.8018 N   0  0  0  0  0  0  0  0  0  0  0  0
   -1.3401    0.1992   -0.3506 C   0  0  0  0  0  0  0  0  0  0  0  0
    0.3887   -1.4908   -0.6734 C   0  0  0  0  0  0  0  0  0  0  0  0
    2.7547   -1.1270    0.1684 C   0  0  0  0  0  0  0  0  0  0  0  0
   -2.1914    2.7289    0.6437 C   0  0  0  0  0  0  0  0  0  0  0  0
   -2.6671    0.5955   -0.5392 N   0  0  0  0  0  0  0  0  0  0  0  0
   -0.9328   -1.0414   -0.8440 C   0  0  0  0  0  0  0  0  0  0  0  0
    0.7639   -2.8403   -1.2308 C   0  0  0  0  0  0  0  0  0  0  0  0
   -2.5407    3.8268    1.0537 O   0  0  0  0  0  0  0  0  0  0  0  0
   -3.1776    1.7903   -0.0857 C   0  0  0  0  0  0  0  0  0  0  0  0
   -4.3500    2.0940   -0.2553 O   0  0  0  0  0  0  0  0  0  0  0  0
   -0.2643    2.9354    1.2348 H   0  0  0  0  0  0  0  0  0  0  0  0
    3.4527   -0.2842    0.1378 H   0  0  0  0  0  0  0  0  0  0  0  0
    3.0707   -1.7927   -0.6401 H   0  0  0  0  0  0  0  0  0  0  0  0
    2.8638   -1.6562    1.1200 H   0  0  0  0  0  0  0  0  0  0  0  0
   -3.3265   -0.0018   -1.0209 H   0  0  0  0  0  0  0  0  0  0  0  0
   -1.6485   -1.6734   -1.3681 H   0  0  0  0  0  0  0  0  0  0  0  0
    1.4162   -2.7203   -2.1013 H   0  0  0  0  0  0  0  0  0  0  0  0
   -0.1202   -3.4033   -1.5488 H   0  0  0  0  0  0  0  0  0  0  0  0
    1.2697   -3.4433   -0.4700 H   0  0  0  0  0  0  0  0  0  0  0  0
  1  2  2  0  0  0  0
  2  3  1  0  0  0  0
  2  4  1  0  0  0  0
  4  5  2  0  0  0  0
  4  6  1  0  0  0  0
  5  7  1  0  0  0  0
  5  8  1  0  0  0  0
  6  9  2  0  0  0  0
  6 10  1  0  0  0  0
  7 11  1  0  0  0  0
  8 12  1  0  0  0  0
  8 13  2  0  0  0  0
  9 14  1  0  0  0  0
 11 15  2  0  0  0  0
 11 16  1  0  0  0  0
 16 17  2  0  0  0  0
  9 13  1  0  0  0  0
 12 16  1  0  0  0  0
  7 18  1  0  0  0  0
 10 19  1  0  0  0  0
 10 20  1  0  0  0  0
 10 21  1  0  0  0  0
 12 22  1  0  0  0  0
 13 23  1  0  0  0  0
 14 24  1  0  0  0  0
 14 25  1  0  0  0  0
 14 26  1  0  0  0  0
M  CHG  2   2   1   3  -1
M  END
>  <Column 1>
Cc1cc2[nH]c(=O)c(=O)[nH]c2c([N+](=O)[O-])c1C ZINC000000006308

>  <Total Molweight>
235.198

>  <cLogP>
-0.8284

>  <cLogS>
-2.994

>  <H-Acceptors>
6

>  <H-Donors>
2

>  <Total Surface Area>
166.37

>  <MMFF94 Energy>
98.936

$$$$
Compound 58
Actelion Java MolfileCreator 1.0

 16 16  0  0  0  0  0  0  0  0999 V2000
   -2.6976    0.0770   -0.1540 O   0  0  0  0  0  0  0  0  0  0  0  0
   -1.3348   -0.0401   -0.1617 C   0  0  0  0  0  0  0  0  0  0  0  0
   -0.7371   -1.0027   -0.9730 C   0  0  0  0  0  0  0  0  0  0  0  0
   -0.5496    0.7940    0.6366 C   0  0  0  0  0  0  0  0  0  0  0  0
   -1.5203   -1.8106   -1.7480 O   0  0  0  0  0  0  0  0  0  0  0  0
    0.6476   -1.1387   -0.9870 C   0  0  0  0  0  0  0  0  0  0  0  0
    0.8435    0.6766    0.6221 C   0  0  0  0  0  0  0  0  0  0  0  0
    1.4313   -0.3017   -0.1860 C   0  0  0  0  0  0  0  0  0  0  0  0
    1.6271    1.4818    1.4291 N   0  0  0  0  0  0  0  0  0  0  0  0
   -2.9494    0.7803    0.4634 H   0  0  0  0  0  0  0  0  0  0  0  0
   -1.0158    1.5390    1.2727 H   0  0  0  0  0  0  0  0  0  0  0  0
   -0.9522   -2.4197   -2.2429 H   0  0  0  0  0  0  0  0  0  0  0  0
    1.1337   -1.8851   -1.6066 H   0  0  0  0  0  0  0  0  0  0  0  0
    2.5116   -0.4205   -0.1993 H   0  0  0  0  0  0  0  0  0  0  0  0
    2.6353    1.4290    1.3810 H   0  0  0  0  0  0  0  0  0  0  0  0
    1.2127    2.2242    1.9753 H   0  0  0  0  0  0  0  0  0  0  0  0
  1  2  1  0  0  0  0
  2  3  2  0  0  0  0
  2  4  1  0  0  0  0
  3  5  1  0  0  0  0
  3  6  1  0  0  0  0
  4  7  2  0  0  0  0
  6  8  2  0  0  0  0
  7  9  1  0  0  0  0
  7  8  1  0  0  0  0
  1 10  1  0  0  0  0
  4 11  1  0  0  0  0
  5 12  1  0  0  0  0
  6 13  1  0  0  0  0
  8 14  1  0  0  0  0
  9 15  1  0  0  0  0
  9 16  1  0  0  0  0
M  END
>  <Column 1>
Nc1ccc(O)c(O)c1 ZINC000000006364

>  <Total Molweight>
125.127

>  <cLogP>
0.2909

>  <cLogS>
-1.1

>  <H-Acceptors>
3

>  <H-Donors>
3

>  <Total Surface Area>
94.48

>  <MMFF94 Energy>
5.9598

$$$$
Compound 59
Actelion Java MolfileCreator 1.0

 21 22  0  0  0  0  0  0  0  0999 V2000
   -2.7145   -2.2351   -1.0372 F   0  0  0  0  0  0  0  0  0  0  0  0
   -2.0980   -1.0467   -1.0875 C   0  0  0  0  0  0  0  0  0  0  0  0
   -0.8496   -0.9031   -0.4852 C   0  0  0  0  0  0  0  0  0  0  0  0
   -2.7076    0.0108   -1.7493 C   0  0  0  0  0  0  0  0  0  0  0  0
   -0.1961    0.3345   -0.5056 C   0  0  0  0  0  0  0  0  0  0  0  0
   -2.0474    1.2323   -1.8289 C   0  0  0  0  0  0  0  0  0  0  0  0
    1.1562    0.5253    0.0287 C   0  0  0  0  0  0  0  0  0  0  0  0
   -0.7941    1.3839   -1.2265 C   0  0  0  0  0  0  0  0  0  0  0  0
    2.0659    1.3341   -0.4922 N   0  0  0  0  0  0  0  0  0  0  0  0
    1.7192   -0.0689    1.1358 N   0  0  0  0  0  0  0  0  0  0  0  0
    3.2216    1.2414    0.2426 N   0  0  0  0  0  0  0  0  0  0  0  0
    2.9980    0.3958    1.2168 C   0  0  0  0  0  0  0  0  0  0  0  0
    1.0984   -0.9190    2.1163 C   0  0  0  0  0  0  0  0  0  0  0  0
   -0.4048   -1.7818   -0.0335 H   0  0  0  0  0  0  0  0  0  0  0  0
   -3.6778   -0.1296   -2.2147 H   0  0  0  0  0  0  0  0  0  0  0  0
   -2.4954    2.0644   -2.3664 H   0  0  0  0  0  0  0  0  0  0  0  0
   -0.2782    2.3404   -1.3163 H   0  0  0  0  0  0  0  0  0  0  0  0
    3.7020    0.1094    1.9853 H   0  0  0  0  0  0  0  0  0  0  0  0
    1.1241   -1.9474    1.7493 H   0  0  0  0  0  0  0  0  0  0  0  0
    1.6531   -0.8518    3.0566 H   0  0  0  0  0  0  0  0  0  0  0  0
    0.0714   -0.5885    2.2888 H   0  0  0  0  0  0  0  0  0  0  0  0
  1  2  1  0  0  0  0
  2  3  2  0  0  0  0
  2  4  1  0  0  0  0
  3  5  1  0  0  0  0
  4  6  2  0  0  0  0
  5  7  1  0  0  0  0
  5  8  2  0  0  0  0
  7  9  2  0  0  0  0
  7 10  1  0  0  0  0
  9 11  1  0  0  0  0
 10 12  1  0  0  0  0
 10 13  1  0  0  0  0
  6  8  1  0  0  0  0
 11 12  2  0  0  0  0
  3 14  1  0  0  0  0
  4 15  1  0  0  0  0
  6 16  1  0  0  0  0
  8 17  1  0  0  0  0
 12 18  1  0  0  0  0
 13 19  1  0  0  0  0
 13 20  1  0  0  0  0
 13 21  1  0  0  0  0
M  END
>  <Column 1>
Cn1cnnc1-c1cccc(F)c1 ZINC000000006371

>  <Total Molweight>
177.182

>  <cLogP>
1.3061

>  <cLogS>
-2.688

>  <H-Acceptors>
3

>  <H-Donors>
0

>  <Total Surface Area>
138.35

>  <MMFF94 Energy>
16.36

$$$$
Compound 60
Actelion Java MolfileCreator 1.0

 18 19  0  0  0  0  0  0  0  0999 V2000
    3.0571    2.8917    0.2476 Cl  0  0  0  0  0  0  0  0  0  0  0  0
    1.8690    1.6553    0.3563 C   0  0  0  0  0  0  0  0  0  0  0  0
    1.7642    0.9041    1.5201 C   0  0  0  0  0  0  0  0  0  0  0  0
    1.0204    1.4144   -0.7204 C   0  0  0  0  0  0  0  0  0  0  0  0
    0.8181   -0.0941    1.6315 N   0  0  0  0  0  0  0  0  0  0  0  0
    0.0643    0.4110   -0.6176 C   0  0  0  0  0  0  0  0  0  0  0  0
    0.7242   -0.7816    2.7001 O   0  0  0  0  0  0  0  0  0  0  0  0
   -0.0392   -0.3439    0.5552 C   0  0  0  0  0  0  0  0  0  0  0  0
   -0.7983    0.1528   -1.6881 N   0  0  0  0  0  0  0  0  0  0  0  0
   -1.0076   -1.3539    0.6479 N   0  0  0  0  0  0  0  0  0  0  0  0
   -1.7724   -0.8267   -1.6601 C   0  0  0  0  0  0  0  0  0  0  0  0
   -1.8880   -1.6651   -0.3589 C   0  0  0  0  0  0  0  0  0  0  0  0
   -2.5065   -1.0201   -2.6185 O   0  0  0  0  0  0  0  0  0  0  0  0
   -2.7216   -2.5520   -0.2477 O   0  0  0  0  0  0  0  0  0  0  0  0
    2.3765    1.0202    2.4010 H   0  0  0  0  0  0  0  0  0  0  0  0
    1.1111    2.0086   -1.6267 H   0  0  0  0  0  0  0  0  0  0  0  0
   -0.7462    0.6837   -2.5492 H   0  0  0  0  0  0  0  0  0  0  0  0
   -1.0465   -1.8770    1.5192 H   0  0  0  0  0  0  0  0  0  0  0  0
  1  2  1  0  0  0  0
  2  3  2  0  0  0  0
  2  4  1  0  0  0  0
  3  5  1  0  0  0  0
  4  6  2  0  0  0  0
  5  7  1  0  0  0  0
  5  8  2  0  0  0  0
  6  9  1  0  0  0  0
  8 10  1  0  0  0  0
  9 11  1  0  0  0  0
 10 12  1  0  0  0  0
 11 13  2  0  0  0  0
 12 14  2  0  0  0  0
  6  8  1  0  0  0  0
 11 12  1  0  0  0  0
  3 15  1  0  0  0  0
  4 16  1  0  0  0  0
  9 17  1  0  0  0  0
 10 18  1  0  0  0  0
M  CHG  2   5   1   7  -1
M  END
>  <Column 1>
O=c1[nH]c2cc(Cl)c[n+]([O-])c2[nH]c1=O ZINC000000006450

>  <Total Molweight>
213.58

>  <cLogP>
-1.1136

>  <cLogS>
-4.696

>  <H-Acceptors>
5

>  <H-Donors>
2

>  <Total Surface Area>
135.65

>  <MMFF94 Energy>
52.58

$$$$
Compound 61
Actelion Java MolfileCreator 1.0

 22 24  0  0  0  0  0  0  0  0999 V2000
   -3.6749    2.4488    0.0816 O   0  0  0  0  0  0  0  0  0  0  0  0
   -3.4039    1.5596   -0.7368 N   0  0  0  0  0  0  0  0  0  0  0  0
   -4.1321    1.2212   -1.6796 O   0  0  0  0  0  0  0  0  0  0  0  0
   -2.1243    0.8552   -0.5765 C   0  0  0  0  0  0  0  0  0  0  0  0
   -1.2694    1.2080    0.4792 C   0  0  0  0  0  0  0  0  0  0  0  0
   -1.7745   -0.1617   -1.4821 C   0  0  0  0  0  0  0  0  0  0  0  0
   -0.0590    0.5331    0.6209 C   0  0  0  0  0  0  0  0  0  0  0  0
   -0.5595   -0.8379   -1.3382 C   0  0  0  0  0  0  0  0  0  0  0  0
    0.8078    0.8764    1.6747 N   0  0  0  0  0  0  0  0  0  0  0  0
    0.2889   -0.4846   -0.2871 C   0  0  0  0  0  0  0  0  0  0  0  0
    2.0324    0.2651    1.9006 C   0  0  0  0  0  0  0  0  0  0  0  0
    1.5254   -1.1134   -0.0723 N   0  0  0  0  0  0  0  0  0  0  0  0
    2.7257    0.6294    2.8467 O   0  0  0  0  0  0  0  0  0  0  0  0
    2.3593   -0.7695    0.9572 C   0  0  0  0  0  0  0  0  0  0  0  0
    2.1620   -2.1148   -0.7423 C   0  0  0  0  0  0  0  0  0  0  0  0
    3.4413   -1.5179    0.9169 N   0  0  0  0  0  0  0  0  0  0  0  0
    3.3143   -2.3702   -0.1613 N   0  0  0  0  0  0  0  0  0  0  0  0
   -1.5435    1.9955    1.1781 H   0  0  0  0  0  0  0  0  0  0  0  0
   -2.4382   -0.4358   -2.3019 H   0  0  0  0  0  0  0  0  0  0  0  0
   -0.3096   -1.6206   -2.0500 H   0  0  0  0  0  0  0  0  0  0  0  0
    0.5672    1.6075    2.3341 H   0  0  0  0  0  0  0  0  0  0  0  0
    1.7745   -2.6176   -1.6157 H   0  0  0  0  0  0  0  0  0  0  0  0
  1  2  2  0  0  0  0
  2  3  1  0  0  0  0
  2  4  1  0  0  0  0
  4  5  2  0  0  0  0
  4  6  1  0  0  0  0
  5  7  1  0  0  0  0
  6  8  2  0  0  0  0
  7  9  1  0  0  0  0
  7 10  2  0  0  0  0
  9 11  1  0  0  0  0
 10 12  1  0  0  0  0
 11 13  2  0  0  0  0
 11 14  1  0  0  0  0
 12 15  1  0  0  0  0
 14 16  2  0  0  0  0
 15 17  2  0  0  0  0
  8 10  1  0  0  0  0
 12 14  1  0  0  0  0
 16 17  1  0  0  0  0
  5 18  1  0  0  0  0
  6 19  1  0  0  0  0
  8 20  1  0  0  0  0
  9 21  1  0  0  0  0
 15 22  1  0  0  0  0
M  CHG  2   2   1   3  -1
M  END
>  <Column 1>
O=c1[nH]c2cc([N+](=O)[O-])ccc2n2cnnc12 ZINC000000007118

>  <Total Molweight>
231.171

>  <cLogP>
-1.0198

>  <cLogS>
-4.025

>  <H-Acceptors>
7

>  <H-Donors>
1

>  <Total Surface Area>
159.12

>  <MMFF94 Energy>
41.711

$$$$
Compound 62
Actelion Java MolfileCreator 1.0

 21 22  0  0  0  0  0  0  0  0999 V2000
    1.7147    1.3062    3.3498 S   0  0  0  0  0  0  0  0  0  0  0  0
    1.3289    0.5552    1.9090 C   0  0  0  0  0  0  0  0  0  0  0  0
    0.1416    0.8253    1.2778 N   0  0  0  0  0  0  0  0  0  0  0  0
    2.2389   -0.4939    1.2879 C   0  0  0  0  0  0  0  0  0  0  0  0
   -0.1624    0.2527    0.0628 C   0  0  0  0  0  0  0  0  0  0  0  0
    2.1841   -0.4358   -0.2329 C   0  0  0  0  0  0  0  0  0  0  0  0
    0.8109   -0.3593   -0.6761 N   0  0  0  0  0  0  0  0  0  0  0  0
   -1.3210    0.1388   -0.6884 C   0  0  0  0  0  0  0  0  0  0  0  0
    0.2579   -0.8400   -1.8164 C   0  0  0  0  0  0  0  0  0  0  0  0
   -1.0268   -0.5634   -1.8647 N   0  0  0  0  0  0  0  0  0  0  0  0
   -2.6775    0.6071   -0.4395 C   0  0  0  0  0  0  0  0  0  0  0  0
   -3.0933    1.4857    0.9046 S   0  0  0  0  0  0  0  0  0  0  0  0
   -3.5928    0.2794   -1.3985 N   0  0  0  0  0  0  0  0  0  0  0  0
   -0.5185    1.4747    1.7030 H   0  0  0  0  0  0  0  0  0  0  0  0
    1.8873   -1.4747    1.6349 H   0  0  0  0  0  0  0  0  0  0  0  0
    3.2737   -0.3755    1.6272 H   0  0  0  0  0  0  0  0  0  0  0  0
    2.6879    0.4599   -0.6131 H   0  0  0  0  0  0  0  0  0  0  0  0
    2.6468   -1.3230   -0.6761 H   0  0  0  0  0  0  0  0  0  0  0  0
    0.8180   -1.3741   -2.5730 H   0  0  0  0  0  0  0  0  0  0  0  0
   -4.5591    0.5609   -1.3185 H   0  0  0  0  0  0  0  0  0  0  0  0
   -3.2834   -0.2545   -2.2054 H   0  0  0  0  0  0  0  0  0  0  0  0
  1  2  2  0  0  0  0
  2  3  1  0  0  0  0
  2  4  1  0  0  0  0
  3  5  1  0  0  0  0
  4  6  1  0  0  0  0
  5  7  1  0  0  0  0
  5  8  2  0  0  0  0
  7  9  1  0  0  0  0
  8 10  1  0  0  0  0
  8 11  1  0  0  0  0
 11 12  2  0  0  0  0
 11 13  1  0  0  0  0
  6  7  1  0  0  0  0
  9 10  2  0  0  0  0
  3 14  1  0  0  0  0
  4 15  1  0  0  0  0
  4 16  1  0  0  0  0
  6 17  1  0  0  0  0
  6 18  1  0  0  0  0
  9 19  1  0  0  0  0
 13 20  1  0  0  0  0
 13 21  1  0  0  0  0
M  END
>  <Column 1>
NC(=S)c1ncn2c1NC(=S)CC2 ZINC000000007604

>  <Total Molweight>
212.301

>  <cLogP>
0.2123

>  <cLogS>
-1.762

>  <H-Acceptors>
4

>  <H-Donors>
2

>  <Total Surface Area>
160.64

>  <MMFF94 Energy>
7.5438

$$$$
Compound 63
Actelion Java MolfileCreator 1.0

 20 21  0  0  0  0  0  0  0  0999 V2000
    0.7977    3.9934   -0.6381 O   0  0  0  0  0  0  0  0  0  0  0  0
    0.5585    2.8009   -0.5046 C   0  0  0  0  0  0  0  0  0  0  0  0
    0.4657    2.2080    0.7283 N   0  0  0  0  0  0  0  0  0  0  0  0
    0.3445    1.8835   -1.7344 C   0  0  0  0  0  0  0  0  0  0  0  0
    0.1964    0.8607    0.9227 C   0  0  0  0  0  0  0  0  0  0  0  0
    0.4066    2.3155   -2.8771 O   0  0  0  0  0  0  0  0  0  0  0  0
    0.0805    0.5553   -1.4793 N   0  0  0  0  0  0  0  0  0  0  0  0
    0.1403    0.4435    2.2005 N   0  0  0  0  0  0  0  0  0  0  0  0
    0.0021    0.0263   -0.1837 C   0  0  0  0  0  0  0  0  0  0  0  0
   -0.1214   -0.8663    2.3931 C   0  0  0  0  0  0  0  0  0  0  0  0
   -0.2682   -1.3287    0.0377 C   0  0  0  0  0  0  0  0  0  0  0  0
   -0.3290   -1.7745    1.3637 C   0  0  0  0  0  0  0  0  0  0  0  0
   -0.4906   -2.2999   -1.0848 C   0  0  0  0  0  0  0  0  0  0  0  0
    0.5998    2.7782    1.5497 H   0  0  0  0  0  0  0  0  0  0  0  0
   -0.0560   -0.0263   -2.2941 H   0  0  0  0  0  0  0  0  0  0  0  0
   -0.1624   -1.1825    3.4326 H   0  0  0  0  0  0  0  0  0  0  0  0
   -0.5348   -2.8141    1.6017 H   0  0  0  0  0  0  0  0  0  0  0  0
   -1.3548   -1.9960   -1.6843 H   0  0  0  0  0  0  0  0  0  0  0  0
   -0.6873   -3.3100   -0.7099 H   0  0  0  0  0  0  0  0  0  0  0  0
    0.3969   -2.3517   -1.7236 H   0  0  0  0  0  0  0  0  0  0  0  0
  1  2  2  0  0  0  0
  2  3  1  0  0  0  0
  2  4  1  0  0  0  0
  3  5  1  0  0  0  0
  4  6  2  0  0  0  0
  4  7  1  0  0  0  0
  5  8  2  0  0  0  0
  5  9  1  0  0  0  0
  8 10  1  0  0  0  0
  9 11  2  0  0  0  0
 10 12  2  0  0  0  0
 11 13  1  0  0  0  0
  7  9  1  0  0  0  0
 11 12  1  0  0  0  0
  3 14  1  0  0  0  0
  7 15  1  0  0  0  0
 10 16  1  0  0  0  0
 12 17  1  0  0  0  0
 13 18  1  0  0  0  0
 13 19  1  0  0  0  0
 13 20  1  0  0  0  0
M  END
>  <Column 1>
Cc1ccnc2[nH]c(=O)c(=O)[nH]c12 ZINC000000007789

>  <Total Molweight>
177.163

>  <cLogP>
-0.9002

>  <cLogS>
-1.92

>  <H-Acceptors>
5

>  <H-Donors>
2

>  <Total Surface Area>
129.2

>  <MMFF94 Energy>
40.823

$$$$
Compound 64
Actelion Java MolfileCreator 1.0

 21 22  0  0  0  0  0  0  0  0999 V2000
   -2.4751   -1.7560   -2.7948 O   0  0  0  0  0  0  0  0  0  0  0  0
   -1.5955   -1.0670   -2.2962 C   0  0  0  0  0  0  0  0  0  0  0  0
   -1.3824   -1.0268   -0.9405 N   0  0  0  0  0  0  0  0  0  0  0  0
   -0.6637   -0.1928   -3.1766 C   0  0  0  0  0  0  0  0  0  0  0  0
   -0.3970   -0.2597   -0.3347 C   0  0  0  0  0  0  0  0  0  0  0  0
   -0.7739   -0.1605   -4.3941 O   0  0  0  0  0  0  0  0  0  0  0  0
    0.2955    0.5468   -2.5179 N   0  0  0  0  0  0  0  0  0  0  0  0
   -0.3140   -0.3274    1.0059 N   0  0  0  0  0  0  0  0  0  0  0  0
    0.4406    0.5263   -1.1285 C   0  0  0  0  0  0  0  0  0  0  0  0
    0.6491    0.4236    1.5838 C   0  0  0  0  0  0  0  0  0  0  0  0
    1.4220    1.2885   -0.5092 C   0  0  0  0  0  0  0  0  0  0  0  0
    0.8041    0.4135    2.9554 O   0  0  0  0  0  0  0  0  0  0  0  0
    1.5281    1.2356    0.8783 C   0  0  0  0  0  0  0  0  0  0  0  0
   -0.1253   -0.4365    3.6201 C   0  0  0  0  0  0  0  0  0  0  0  0
   -1.9744   -1.5858   -0.3449 H   0  0  0  0  0  0  0  0  0  0  0  0
    0.8978    1.1133   -3.1002 H   0  0  0  0  0  0  0  0  0  0  0  0
    2.0990    1.9167   -1.0793 H   0  0  0  0  0  0  0  0  0  0  0  0
    2.2802    1.8144    1.4043 H   0  0  0  0  0  0  0  0  0  0  0  0
    0.0771   -0.3764    4.6938 H   0  0  0  0  0  0  0  0  0  0  0  0
   -1.1558   -0.1025    3.4562 H   0  0  0  0  0  0  0  0  0  0  0  0
    0.0037   -1.4807    3.3149 H   0  0  0  0  0  0  0  0  0  0  0  0
  1  2  2  0  0  0  0
  2  3  1  0  0  0  0
  2  4  1  0  0  0  0
  3  5  1  0  0  0  0
  4  6  2  0  0  0  0
  4  7  1  0  0  0  0
  5  8  2  0  0  0  0
  5  9  1  0  0  0  0
  8 10  1  0  0  0  0
  9 11  2  0  0  0  0
 10 12  1  0  0  0  0
 10 13  2  0  0  0  0
 12 14  1  0  0  0  0
  7  9  1  0  0  0  0
 11 13  1  0  0  0  0
  3 15  1  0  0  0  0
  7 16  1  0  0  0  0
 11 17  1  0  0  0  0
 13 18  1  0  0  0  0
 14 19  1  0  0  0  0
 14 20  1  0  0  0  0
 14 21  1  0  0  0  0
M  END
>  <Column 1>
COc1ccc2[nH]c(=O)c(=O)[nH]c2n1 ZINC000000007790

>  <Total Molweight>
193.162

>  <cLogP>
-0.9627

>  <cLogS>
-2.119

>  <H-Acceptors>
6

>  <H-Donors>
2

>  <Total Surface Area>
139.2

>  <MMFF94 Energy>
21.9

$$$$
Compound 65
Actelion Java MolfileCreator 1.0

 23 23  0  0  1  0  0  0  0  0999 V2000
   -0.9379    2.5808    0.3907 O   0  0  0  0  0  0  0  0  0  0  0  0
   -0.3999    1.4733    0.5038 C   0  0  0  0  0  0  0  0  0  0  0  0
    0.0312    1.0997    1.7406 N   0  0  0  0  0  0  0  0  0  0  0  0
   -0.1552    0.5728   -0.7255 C   0  0  0  0  0  0  0  0  0  0  0  0
    0.5088   -0.1848    2.2169 C   0  0  0  0  0  0  0  0  0  0  0  0
   -0.9568    1.1290   -1.8145 N   0  0  0  0  0  0  0  0  0  0  0  0
   -0.5226   -0.8855   -0.4545 C   0  0  0  0  0  0  0  0  0  0  0  0
    1.4108   -0.9342    1.2512 C   0  0  0  0  0  0  0  0  0  0  0  0
   -0.7496    0.8015   -3.1241 C   0  0  0  0  0  0  0  0  0  0  0  0
    0.6340   -1.6731    0.1619 C   0  0  0  0  0  0  0  0  0  0  0  0
    0.0672   -0.0120   -3.5302 O   0  0  0  0  0  0  0  0  0  0  0  0
   -0.1708    1.8037    2.4421 H   0  0  0  0  0  0  0  0  0  0  0  0
    0.8952    0.6711   -1.0235 H   0  0  0  0  0  0  0  0  0  0  0  0
    1.0659    0.0291    3.1358 H   0  0  0  0  0  0  0  0  0  0  0  0
   -0.3643   -0.7839    2.4976 H   0  0  0  0  0  0  0  0  0  0  0  0
   -1.5882    1.8907   -1.5808 H   0  0  0  0  0  0  0  0  0  0  0  0
   -0.8193   -1.4002   -1.3763 H   0  0  0  0  0  0  0  0  0  0  0  0
   -1.3983   -0.9377    0.2057 H   0  0  0  0  0  0  0  0  0  0  0  0
    1.9955   -1.6768    1.8078 H   0  0  0  0  0  0  0  0  0  0  0  0
    2.1362   -0.2467    0.7997 H   0  0  0  0  0  0  0  0  0  0  0  0
   -1.4150    1.3631   -3.8007 H   0  0  0  0  0  0  0  0  0  0  0  0
    0.2338   -2.6089    0.5717 H   0  0  0  0  0  0  0  0  0  0  0  0
    1.3383   -1.9629   -0.6278 H   0  0  0  0  0  0  0  0  0  0  0  0
  1  2  2  0  0  0  0
  2  3  1  0  0  0  0
  2  4  1  0  0  0  0
  3  5  1  0  0  0  0
  4  6  1  0  0  0  0
  4  7  1  0  0  0  0
  5  8  1  0  0  0  0
  6  9  1  0  0  0  0
  7 10  1  0  0  0  0
  9 11  2  0  0  0  0
  8 10  1  0  0  0  0
  3 12  1  0  0  0  0
  4 13  1  0  0  0  0
  5 14  1  0  0  0  0
  5 15  1  0  0  0  0
  6 16  1  0  0  0  0
  7 17  1  0  0  0  0
  7 18  1  0  0  0  0
  8 19  1  0  0  0  0
  8 20  1  0  0  0  0
  9 21  1  0  0  0  0
 10 22  1  0  0  0  0
 10 23  1  0  0  0  0
M  END
>  <Column 1>
O=CN[C@@H]1CCCCNC1=O ZINC000000007996

>  <Total Molweight>
156.184

>  <cLogP>
-0.6922

>  <cLogS>
-1.421

>  <H-Acceptors>
4

>  <H-Donors>
2

>  <Total Surface Area>
127.75

>  <MMFF94 Energy>
-9.4915

$$$$
Compound 66
Actelion Java MolfileCreator 1.0

 31 32  0  0  0  0  0  0  0  0999 V2000
   -0.2400   -2.8026    1.3605 O   0  0  0  0  0  0  0  0  0  0  0  0
    0.1948   -1.7439    0.9191 C   0  0  0  0  0  0  0  0  0  0  0  0
    0.0432   -1.3598   -0.5145 C   0  0  0  0  0  0  0  0  0  0  0  0
    0.9472   -0.7803    1.7808 C   0  0  0  0  0  0  0  0  0  0  0  0
    0.6766   -0.1737   -1.0368 C   0  0  0  0  0  0  0  0  0  0  0  0
   -0.6442   -2.1771   -1.3265 C   0  0  0  0  0  0  0  0  0  0  0  0
    1.5419   -1.2582    2.8879 C   0  0  0  0  0  0  0  0  0  0  0  0
    0.9931    0.6591    1.3593 C   0  0  0  0  0  0  0  0  0  0  0  0
    1.3865    0.7546   -0.1140 C   0  0  0  0  0  0  0  0  0  0  0  0
    0.5960    0.1113   -2.3433 C   0  0  0  0  0  0  0  0  0  0  0  0
   -0.7592   -1.8680   -2.7767 C   0  0  0  0  0  0  0  0  0  0  0  0
   -0.3084    1.2319    1.4977 O   0  0  0  0  0  0  0  0  0  0  0  0
    2.2096    1.5685   -0.5309 O   0  0  0  0  0  0  0  0  0  0  0  0
   -0.1026   -0.7155   -3.2098 N   0  0  0  0  0  0  0  0  0  0  0  0
   -1.4011   -2.6249   -3.4982 O   0  0  0  0  0  0  0  0  0  0  0  0
   -0.4675    1.9495    2.7201 C   0  0  0  0  0  0  0  0  0  0  0  0
   -0.1608   -0.3507   -4.6177 C   0  0  0  0  0  0  0  0  0  0  0  0
   -1.8898    2.4695    2.7849 C   0  0  0  0  0  0  0  0  0  0  0  0
   -1.1251   -3.0894   -0.9924 H   0  0  0  0  0  0  0  0  0  0  0  0
    1.4767   -2.3098    3.1601 H   0  0  0  0  0  0  0  0  0  0  0  0
    2.1000   -0.6142    3.5603 H   0  0  0  0  0  0  0  0  0  0  0  0
    1.7416    1.2231    1.9315 H   0  0  0  0  0  0  0  0  0  0  0  0
    1.0572    0.9985   -2.7721 H   0  0  0  0  0  0  0  0  0  0  0  0
    0.2360    2.7888    2.7481 H   0  0  0  0  0  0  0  0  0  0  0  0
   -0.2746    1.2882    3.5716 H   0  0  0  0  0  0  0  0  0  0  0  0
   -0.6516    0.6233   -4.7125 H   0  0  0  0  0  0  0  0  0  0  0  0
    0.8582   -0.2876   -5.0124 H   0  0  0  0  0  0  0  0  0  0  0  0
   -0.7198   -1.0836   -5.2057 H   0  0  0  0  0  0  0  0  0  0  0  0
   -2.0584    3.0313    3.7080 H   0  0  0  0  0  0  0  0  0  0  0  0
   -2.1016    3.1210    1.9307 H   0  0  0  0  0  0  0  0  0  0  0  0
   -2.6051    1.6416    2.7391 H   0  0  0  0  0  0  0  0  0  0  0  0
  1  2  2  0  0  0  0
  2  3  1  0  0  0  0
  2  4  1  0  0  0  0
  3  5  1  0  0  0  0
  3  6  2  0  0  0  0
  4  7  2  0  0  0  0
  4  8  1  0  0  0  0
  5  9  1  0  0  0  0
  5 10  2  0  0  0  0
  6 11  1  0  0  0  0
  8 12  1  0  0  0  0
  9 13  2  0  0  0  0
 10 14  1  0  0  0  0
 11 15  2  0  0  0  0
 12 16  1  0  0  0  0
 14 17  1  0  0  0  0
 16 18  1  0  0  0  0
  8  9  1  0  0  0  0
 11 14  1  0  0  0  0
  6 19  1  0  0  0  0
  7 20  1  0  0  0  0
  7 21  1  0  0  0  0
  8 22  1  0  0  0  0
 10 23  1  0  0  0  0
 16 24  1  0  0  0  0
 16 25  1  0  0  0  0
 17 26  1  0  0  0  0
 17 27  1  0  0  0  0
 17 28  1  0  0  0  0
 18 29  1  0  0  0  0
 18 30  1  0  0  0  0
 18 31  1  0  0  0  0
M  END
>  <Column 1>
C=C1C(=O)c2cc(=O)n(C)cc2C(=O)C1OCC ZINC000000008262

>  <Total Molweight>
247.249

>  <cLogP>
-0.0321

>  <cLogS>
-1.011

>  <H-Acceptors>
5

>  <H-Donors>
0

>  <Total Surface Area>
183

>  <MMFF94 Energy>
48.467

$$$$
Compound 67
Actelion Java MolfileCreator 1.0

 35 37  0  0  1  0  0  0  0  0999 V2000
    1.3152    1.9733   -0.3287 S   0  0  0  0  0  0  0  0  0  0  0  0
    2.3696    2.5051    0.5063 O   0  0  0  0  0  0  0  0  0  0  0  0
    1.3804    2.0498   -1.7726 O   0  0  0  0  0  0  0  0  0  0  0  0
    1.0820    0.3298    0.0824 N   0  0  0  0  0  0  0  0  0  0  0  0
   -0.2033    2.7233    0.2089 C   0  0  0  0  0  0  0  0  0  0  0  0
   -0.0001   -0.3649   -0.7021 C   0  0  0  0  0  0  0  0  0  0  0  0
    2.3642   -0.4663    0.0184 C   0  0  0  0  0  0  0  0  0  0  0  0
   -1.0582    3.3257   -0.7210 C   0  0  0  0  0  0  0  0  0  0  0  0
   -0.5187    2.7067    1.5734 C   0  0  0  0  0  0  0  0  0  0  0  0
   -0.2443   -1.7646   -0.1169 C   0  0  0  0  0  0  0  0  0  0  0  0
    2.1539   -1.8691    0.6063 C   0  0  0  0  0  0  0  0  0  0  0  0
   -2.2473    3.9059   -0.2775 C   0  0  0  0  0  0  0  0  0  0  0  0
   -1.7095    3.2892    2.0070 C   0  0  0  0  0  0  0  0  0  0  0  0
    0.9830   -2.5119    0.0356 N   0  0  0  0  0  0  0  0  0  0  0  0
   -1.0759   -2.6771   -1.0064 C   0  0  0  0  0  0  0  0  0  0  0  0
   -2.5624    3.8811    1.0790 C   0  0  0  0  0  0  0  0  0  0  0  0
    0.8205   -3.8640   -0.1824 C   0  0  0  0  0  0  0  0  0  0  0  0
   -0.6131   -4.0799   -0.6098 C   0  0  0  0  0  0  0  0  0  0  0  0
   -3.7061    4.4374    1.4983 F   0  0  0  0  0  0  0  0  0  0  0  0
    1.6561   -4.7357   -0.0212 O   0  0  0  0  0  0  0  0  0  0  0  0
   -0.9345    0.2021   -0.6575 H   0  0  0  0  0  0  0  0  0  0  0  0
    0.3120   -0.4385   -1.7511 H   0  0  0  0  0  0  0  0  0  0  0  0
    2.6862   -0.5440   -1.0270 H   0  0  0  0  0  0  0  0  0  0  0  0
    3.1502    0.0355    0.5916 H   0  0  0  0  0  0  0  0  0  0  0  0
   -0.8062    3.3514   -1.7789 H   0  0  0  0  0  0  0  0  0  0  0  0
    0.1585    2.2488    2.2915 H   0  0  0  0  0  0  0  0  0  0  0  0
   -0.6932   -1.6831    0.8818 H   0  0  0  0  0  0  0  0  0  0  0  0
    1.9792   -1.8000    1.6865 H   0  0  0  0  0  0  0  0  0  0  0  0
    3.0352   -2.4992    0.4501 H   0  0  0  0  0  0  0  0  0  0  0  0
   -2.9282    4.3817   -0.9771 H   0  0  0  0  0  0  0  0  0  0  0  0
   -1.9766    3.2914    3.0595 H   0  0  0  0  0  0  0  0  0  0  0  0
   -2.1519   -2.5352   -0.8696 H   0  0  0  0  0  0  0  0  0  0  0  0
   -0.8459   -2.5084   -2.0659 H   0  0  0  0  0  0  0  0  0  0  0  0
   -1.1819   -4.4616    0.2437 H   0  0  0  0  0  0  0  0  0  0  0  0
   -0.6725   -4.7794   -1.4468 H   0  0  0  0  0  0  0  0  0  0  0  0
  1  2  2  0  0  0  0
  1  3  2  0  0  0  0
  1  4  1  0  0  0  0
  1  5  1  0  0  0  0
  4  6  1  0  0  0  0
  4  7  1  0  0  0  0
  5  8  2  0  0  0  0
  5  9  1  0  0  0  0
  6 10  1  0  0  0  0
  7 11  1  0  0  0  0
  8 12  1  0  0  0  0
  9 13  2  0  0  0  0
 10 14  1  0  0  0  0
 10 15  1  0  0  0  0
 12 16  2  0  0  0  0
 14 17  1  0  0  0  0
 15 18  1  0  0  0  0
 16 19  1  0  0  0  0
 17 20  2  0  0  0  0
 11 14  1  0  0  0  0
 13 16  1  0  0  0  0
 17 18  1  0  0  0  0
  6 21  1  0  0  0  0
  6 22  1  0  0  0  0
  7 23  1  0  0  0  0
  7 24  1  0  0  0  0
  8 25  1  0  0  0  0
  9 26  1  0  0  0  0
 10 27  1  0  0  0  0
 11 28  1  0  0  0  0
 11 29  1  0  0  0  0
 12 30  1  0  0  0  0
 13 31  1  0  0  0  0
 15 32  1  0  0  0  0
 15 33  1  0  0  0  0
 18 34  1  0  0  0  0
 18 35  1  0  0  0  0
M  END
>  <Column 1>
O=C1CC[C@@H]2CN(S(=O)(=O)c3ccc(F)cc3)CCN12 ZINC000000008705

>  <Total Molweight>
298.337

>  <cLogP>
0.8761

>  <cLogS>
-1.384

>  <H-Acceptors>
5

>  <H-Donors>
0

>  <Total Surface Area>
200.84

>  <MMFF94 Energy>
8.5009

$$$$
Compound 68
Actelion Java MolfileCreator 1.0

 29 30  0  0  0  0  0  0  0  0999 V2000
    3.0922   -0.5691    1.5452 S   0  0  0  0  0  0  0  0  0  0  0  0
    4.4166   -0.9768    1.1177 O   0  0  0  0  0  0  0  0  0  0  0  0
    2.7047    0.8223    1.4815 O   0  0  0  0  0  0  0  0  0  0  0  0
    2.0500   -1.5220    0.6159 N   0  0  0  0  0  0  0  0  0  0  0  0
    2.8412   -1.2083    3.1892 C   0  0  0  0  0  0  0  0  0  0  0  0
    0.8987   -0.8492    0.1213 C   0  0  0  0  0  0  0  0  0  0  0  0
   -0.1009   -0.1855    0.9989 C   0  0  0  0  0  0  0  0  0  0  0  0
    0.6800   -0.8884   -1.1965 C   0  0  0  0  0  0  0  0  0  0  0  0
   -0.0512   -0.2650    2.2225 O   0  0  0  0  0  0  0  0  0  0  0  0
   -1.2045    0.5354    0.3129 C   0  0  0  0  0  0  0  0  0  0  0  0
   -0.3902   -0.2924   -1.8466 N   0  0  0  0  0  0  0  0  0  0  0  0
   -1.3280    0.4583   -1.0942 C   0  0  0  0  0  0  0  0  0  0  0  0
   -2.1140    1.2655    1.0931 C   0  0  0  0  0  0  0  0  0  0  0  0
   -0.5525   -0.3669   -3.2985 C   0  0  0  0  0  0  0  0  0  0  0  0
   -2.4035    1.1505   -1.6770 C   0  0  0  0  0  0  0  0  0  0  0  0
   -3.1667    1.9399    0.4836 C   0  0  0  0  0  0  0  0  0  0  0  0
   -3.3106    1.8821   -0.8988 C   0  0  0  0  0  0  0  0  0  0  0  0
    2.6014   -2.0519   -0.0585 H   0  0  0  0  0  0  0  0  0  0  0  0
    1.8404   -0.9680    3.5409 H   0  0  0  0  0  0  0  0  0  0  0  0
    3.0032   -2.2878    3.1751 H   0  0  0  0  0  0  0  0  0  0  0  0
    3.5788   -0.7367    3.8429 H   0  0  0  0  0  0  0  0  0  0  0  0
    1.3689   -1.3909   -1.8683 H   0  0  0  0  0  0  0  0  0  0  0  0
   -1.9982    1.3087    2.1742 H   0  0  0  0  0  0  0  0  0  0  0  0
    0.2166   -0.9993   -3.7569 H   0  0  0  0  0  0  0  0  0  0  0  0
   -1.5207   -0.8066   -3.5631 H   0  0  0  0  0  0  0  0  0  0  0  0
   -0.4634    0.6259   -3.7533 H   0  0  0  0  0  0  0  0  0  0  0  0
   -2.5652    1.1442   -2.7506 H   0  0  0  0  0  0  0  0  0  0  0  0
   -3.8710    2.5088    1.0853 H   0  0  0  0  0  0  0  0  0  0  0  0
   -4.1318    2.4095   -1.3792 H   0  0  0  0  0  0  0  0  0  0  0  0
  1  2  2  0  0  0  0
  1  3  2  0  0  0  0
  1  4  1  0  0  0  0
  1  5  1  0  0  0  0
  4  6  1  0  0  0  0
  6  7  1  0  0  0  0
  6  8  2  0  0  0  0
  7  9  2  0  0  0  0
  7 10  1  0  0  0  0
  8 11  1  0  0  0  0
 10 12  2  0  0  0  0
 10 13  1  0  0  0  0
 11 14  1  0  0  0  0
 12 15  1  0  0  0  0
 13 16  2  0  0  0  0
 15 17  2  0  0  0  0
 11 12  1  0  0  0  0
 16 17  1  0  0  0  0
  4 18  1  0  0  0  0
  5 19  1  0  0  0  0
  5 20  1  0  0  0  0
  5 21  1  0  0  0  0
  8 22  1  0  0  0  0
 13 23  1  0  0  0  0
 14 24  1  0  0  0  0
 14 25  1  0  0  0  0
 14 26  1  0  0  0  0
 15 27  1  0  0  0  0
 16 28  1  0  0  0  0
 17 29  1  0  0  0  0
M  END
>  <Column 1>
Cn1cc(NS(C)(=O)=O)c(=O)c2ccccc21 ZINC000000008845

>  <Total Molweight>
252.293

>  <cLogP>
0.6077

>  <cLogS>
-3.353

>  <H-Acceptors>
5

>  <H-Donors>
1

>  <Total Surface Area>
177.08

>  <MMFF94 Energy>
17.122

$$$$
Compound 69
Actelion Java MolfileCreator 1.0

 17 18  0  0  0  0  0  0  0  0999 V2000
   -2.0750    0.2488    1.4106 S   0  0  0  0  0  0  0  0  0  0  0  0
   -2.4801   -1.1336    1.5045 O   0  0  0  0  0  0  0  0  0  0  0  0
   -2.8191    1.3201    2.0189 O   0  0  0  0  0  0  0  0  0  0  0  0
   -0.4391    0.3405    1.8738 N   0  0  0  0  0  0  0  0  0  0  0  0
   -1.7951    0.5949   -0.2328 N   0  0  0  0  0  0  0  0  0  0  0  0
    0.3036    0.0482    0.6918 C   0  0  0  0  0  0  0  0  0  0  0  0
   -0.4500    0.1895   -0.4789 C   0  0  0  0  0  0  0  0  0  0  0  0
    1.6565   -0.2261    0.6484 C   0  0  0  0  0  0  0  0  0  0  0  0
    0.1275    0.0607   -1.7269 C   0  0  0  0  0  0  0  0  0  0  0  0
    2.2472   -0.3931   -0.6079 C   0  0  0  0  0  0  0  0  0  0  0  0
    1.4893   -0.2510   -1.7851 C   0  0  0  0  0  0  0  0  0  0  0  0
   -0.2414   -0.2271    2.6944 H   0  0  0  0  0  0  0  0  0  0  0  0
   -2.5132    0.1990   -0.8348 H   0  0  0  0  0  0  0  0  0  0  0  0
    2.2487   -0.2985    1.5536 H   0  0  0  0  0  0  0  0  0  0  0  0
   -0.4471    0.2071   -2.6344 H   0  0  0  0  0  0  0  0  0  0  0  0
    3.3102   -0.6155   -0.6786 H   0  0  0  0  0  0  0  0  0  0  0  0
    1.9752   -0.3652   -2.7522 H   0  0  0  0  0  0  0  0  0  0  0  0
  1  2  2  0  0  0  0
  1  3  2  0  0  0  0
  1  4  1  0  0  0  0
  1  5  1  0  0  0  0
  4  6  1  0  0  0  0
  5  7  1  0  0  0  0
  6  8  1  0  0  0  0
  7  9  1  0  0  0  0
  8 10  2  0  0  0  0
  9 11  2  0  0  0  0
  6  7  2  0  0  0  0
 10 11  1  0  0  0  0
  4 12  1  0  0  0  0
  5 13  1  0  0  0  0
  8 14  1  0  0  0  0
  9 15  1  0  0  0  0
 10 16  1  0  0  0  0
 11 17  1  0  0  0  0
M  END
>  <Column 1>
O=S1(=O)Nc2ccccc2N1 ZINC000000009186

>  <Total Molweight>
170.192

>  <cLogP>
1.4606

>  <cLogS>
-2.844

>  <H-Acceptors>
4

>  <H-Donors>
2

>  <Total Surface Area>
111.26

>  <MMFF94 Energy>
-106.43

$$$$
Compound 70
Actelion Java MolfileCreator 1.0

 24 26  0  0  0  0  0  0  0  0999 V2000
    0.4000    1.6005    1.6005 N   0  0  0  0  0  0  0  0  0  0  0  0
    0.8161    0.4797    0.9701 C   0  0  0  0  0  0  0  0  0  0  0  0
   -0.7432    2.1413    1.1672 C   0  0  0  0  0  0  0  0  0  0  0  0
    2.0324   -0.1028    1.4251 N   0  0  0  0  0  0  0  0  0  0  0  0
    0.1100   -0.0953   -0.0731 C   0  0  0  0  0  0  0  0  0  0  0  0
   -1.4989    1.6677    0.1718 N   0  0  0  0  0  0  0  0  0  0  0  0
    2.8101    0.3869    2.4515 C   0  0  0  0  0  0  0  0  0  0  0  0
    2.6798   -1.2307    0.9696 C   0  0  0  0  0  0  0  0  0  0  0  0
   -1.0603    0.5455   -0.4423 C   0  0  0  0  0  0  0  0  0  0  0  0
    3.8812   -0.3459    2.6646 N   0  0  0  0  0  0  0  0  0  0  0  0
    3.8085   -1.3547    1.7472 C   0  0  0  0  0  0  0  0  0  0  0  0
   -1.8622    0.0368   -1.5039 N   0  0  0  0  0  0  0  0  0  0  0  0
   -1.6518   -1.0748   -2.2876 C   0  0  0  0  0  0  0  0  0  0  0  0
   -3.0424    0.5910   -1.9545 C   0  0  0  0  0  0  0  0  0  0  0  0
   -2.6026   -1.2489   -3.1801 N   0  0  0  0  0  0  0  0  0  0  0  0
   -3.4740   -0.2147   -2.9797 C   0  0  0  0  0  0  0  0  0  0  0  0
   -1.0871    3.0414    1.6660 H   0  0  0  0  0  0  0  0  0  0  0  0
    0.4549   -0.9903   -0.5666 H   0  0  0  0  0  0  0  0  0  0  0  0
    2.5419    1.2793    3.0030 H   0  0  0  0  0  0  0  0  0  0  0  0
    2.3169   -1.8455    0.1611 H   0  0  0  0  0  0  0  0  0  0  0  0
    4.5725   -2.1202    1.6921 H   0  0  0  0  0  0  0  0  0  0  0  0
   -0.8001   -1.7310   -2.1809 H   0  0  0  0  0  0  0  0  0  0  0  0
   -3.4578    1.4873   -1.5150 H   0  0  0  0  0  0  0  0  0  0  0  0
   -4.3665   -0.1026   -3.5825 H   0  0  0  0  0  0  0  0  0  0  0  0
  1  2  2  0  0  0  0
  1  3  1  0  0  0  0
  2  4  1  0  0  0  0
  2  5  1  0  0  0  0
  3  6  2  0  0  0  0
  4  7  1  0  0  0  0
  4  8  1  0  0  0  0
  5  9  2  0  0  0  0
  7 10  2  0  0  0  0
  8 11  2  0  0  0  0
  9 12  1  0  0  0  0
 12 13  1  0  0  0  0
 12 14  1  0  0  0  0
 13 15  2  0  0  0  0
 14 16  2  0  0  0  0
  6  9  1  0  0  0  0
 10 11  1  0  0  0  0
 15 16  1  0  0  0  0
  3 17  1  0  0  0  0
  5 18  1  0  0  0  0
  7 19  1  0  0  0  0
  8 20  1  0  0  0  0
 11 21  1  0  0  0  0
 13 22  1  0  0  0  0
 14 23  1  0  0  0  0
 16 24  1  0  0  0  0
M  END
>  <Column 1>
c1cn(-c2cc(-n3ccnc3)ncn2)cn1 ZINC000000009769

>  <Total Molweight>
212.216

>  <cLogP>
2.2216

>  <cLogS>
-3.05

>  <H-Acceptors>
6

>  <H-Donors>
0

>  <Total Surface Area>
166.22

>  <MMFF94 Energy>
23.944

$$$$
Compound 71
Actelion Java MolfileCreator 1.0

 21 22  0  0  0  0  0  0  0  0999 V2000
   -2.3750   -2.0580   -0.3955 O   0  0  0  0  0  0  0  0  0  0  0  0
   -1.2332   -1.5992    0.1956 C   0  0  0  0  0  0  0  0  0  0  0  0
   -2.9345   -1.2819   -1.4438 C   0  0  0  0  0  0  0  0  0  0  0  0
   -0.8065   -2.4135    1.1742 N   0  0  0  0  0  0  0  0  0  0  0  0
   -0.5690   -0.4397   -0.1470 C   0  0  0  0  0  0  0  0  0  0  0  0
    0.3069   -2.0506    1.8155 C   0  0  0  0  0  0  0  0  0  0  0  0
    0.5743   -0.1532    0.5778 C   0  0  0  0  0  0  0  0  0  0  0  0
    1.0285   -0.9522    1.5677 N   0  0  0  0  0  0  0  0  0  0  0  0
    1.3279    1.0206    0.2981 N   0  0  0  0  0  0  0  0  0  0  0  0
    2.4765    1.4012    0.9570 C   0  0  0  0  0  0  0  0  0  0  0  0
    1.0972    1.9977   -0.6462 C   0  0  0  0  0  0  0  0  0  0  0  0
    2.9705    2.5302    0.4968 N   0  0  0  0  0  0  0  0  0  0  0  0
    2.1186    2.9085   -0.5011 C   0  0  0  0  0  0  0  0  0  0  0  0
   -2.2452   -1.2068   -2.2914 H   0  0  0  0  0  0  0  0  0  0  0  0
   -3.8370   -1.7921   -1.7940 H   0  0  0  0  0  0  0  0  0  0  0  0
   -3.2311   -0.2899   -1.0867 H   0  0  0  0  0  0  0  0  0  0  0  0
   -0.9247    0.2031   -0.9354 H   0  0  0  0  0  0  0  0  0  0  0  0
    0.6554   -2.7053    2.6069 H   0  0  0  0  0  0  0  0  0  0  0  0
    2.9004    0.8133    1.7615 H   0  0  0  0  0  0  0  0  0  0  0  0
    0.2621    1.9847   -1.3288 H   0  0  0  0  0  0  0  0  0  0  0  0
    2.2831    3.8179   -1.0655 H   0  0  0  0  0  0  0  0  0  0  0  0
  1  2  1  0  0  0  0
  1  3  1  0  0  0  0
  2  4  2  0  0  0  0
  2  5  1  0  0  0  0
  4  6  1  0  0  0  0
  5  7  2  0  0  0  0
  6  8  2  0  0  0  0
  7  9  1  0  0  0  0
  9 10  1  0  0  0  0
  9 11  1  0  0  0  0
 10 12  2  0  0  0  0
 11 13  2  0  0  0  0
  7  8  1  0  0  0  0
 12 13  1  0  0  0  0
  3 14  1  0  0  0  0
  3 15  1  0  0  0  0
  3 16  1  0  0  0  0
  5 17  1  0  0  0  0
  6 18  1  0  0  0  0
 10 19  1  0  0  0  0
 11 20  1  0  0  0  0
 13 21  1  0  0  0  0
M  END
>  <Column 1>
COc1cc(-n2ccnc2)ncn1 ZINC000000009770

>  <Total Molweight>
176.179

>  <cLogP>
1.4404

>  <cLogS>
-2.374

>  <H-Acceptors>
5

>  <H-Donors>
0

>  <Total Surface Area>
140.76

>  <MMFF94 Energy>
-8.7743

$$$$
Compound 72
Actelion Java MolfileCreator 1.0

 24 25  0  0  0  0  0  0  0  0999 V2000
    1.1055    2.1328   -1.8957 O   0  0  0  0  0  0  0  0  0  0  0  0
    0.8287    1.3216   -0.8123 C   0  0  0  0  0  0  0  0  0  0  0  0
    0.3716    1.7838   -3.0654 C   0  0  0  0  0  0  0  0  0  0  0  0
   -0.0595    0.3218   -0.9324 N   0  0  0  0  0  0  0  0  0  0  0  0
    1.5086    1.6116    0.3469 C   0  0  0  0  0  0  0  0  0  0  0  0
   -0.2654   -0.4158    0.1747 C   0  0  0  0  0  0  0  0  0  0  0  0
    1.2340    0.8039    1.4284 C   0  0  0  0  0  0  0  0  0  0  0  0
    0.3508   -0.2130    1.3596 N   0  0  0  0  0  0  0  0  0  0  0  0
   -1.1961   -1.4826    0.0912 N   0  0  0  0  0  0  0  0  0  0  0  0
    1.9216    1.0350    2.7399 C   0  0  0  0  0  0  0  0  0  0  0  0
   -1.9203   -1.8473   -1.0178 C   0  0  0  0  0  0  0  0  0  0  0  0
   -1.5575   -2.3574    1.0922 C   0  0  0  0  0  0  0  0  0  0  0  0
   -2.7030   -2.8796   -0.7844 N   0  0  0  0  0  0  0  0  0  0  0  0
   -2.4825   -3.2032    0.5281 C   0  0  0  0  0  0  0  0  0  0  0  0
   -0.7066    1.8905   -2.9033 H   0  0  0  0  0  0  0  0  0  0  0  0
    0.6595    2.4794   -3.8594 H   0  0  0  0  0  0  0  0  0  0  0  0
    0.6207    0.7716   -3.4020 H   0  0  0  0  0  0  0  0  0  0  0  0
    2.2157    2.4285    0.3962 H   0  0  0  0  0  0  0  0  0  0  0  0
    1.5893    0.3077    3.4876 H   0  0  0  0  0  0  0  0  0  0  0  0
    3.0048    0.9322    2.6226 H   0  0  0  0  0  0  0  0  0  0  0  0
    1.6936    2.0375    3.1152 H   0  0  0  0  0  0  0  0  0  0  0  0
   -1.8341   -1.3243   -1.9613 H   0  0  0  0  0  0  0  0  0  0  0  0
   -1.1338   -2.2970    2.0847 H   0  0  0  0  0  0  0  0  0  0  0  0
   -3.0015   -4.0285    0.9987 H   0  0  0  0  0  0  0  0  0  0  0  0
  1  2  1  0  0  0  0
  1  3  1  0  0  0  0
  2  4  2  0  0  0  0
  2  5  1  0  0  0  0
  4  6  1  0  0  0  0
  5  7  2  0  0  0  0
  6  8  2  0  0  0  0
  6  9  1  0  0  0  0
  7 10  1  0  0  0  0
  9 11  1  0  0  0  0
  9 12  1  0  0  0  0
 11 13  2  0  0  0  0
 12 14  2  0  0  0  0
  7  8  1  0  0  0  0
 13 14  1  0  0  0  0
  3 15  1  0  0  0  0
  3 16  1  0  0  0  0
  3 17  1  0  0  0  0
  5 18  1  0  0  0  0
 10 19  1  0  0  0  0
 10 20  1  0  0  0  0
 10 21  1  0  0  0  0
 11 22  1  0  0  0  0
 12 23  1  0  0  0  0
 14 24  1  0  0  0  0
M  END
>  <Column 1>
COc1cc(C)nc(-n2ccnc2)n1 ZINC000000009771

>  <Total Molweight>
190.205

>  <cLogP>
1.0356

>  <cLogS>
-1.271

>  <H-Acceptors>
5

>  <H-Donors>
0

>  <Total Surface Area>
153.02

>  <MMFF94 Energy>
-1.8411

$$$$
Compound 73
Actelion Java MolfileCreator 1.0

 24 25  0  0  0  0  0  0  0  0999 V2000
   -1.8208   -0.4748    2.3755 O   0  0  0  0  0  0  0  0  0  0  0  0
   -1.1230   -0.6386    1.1940 C   0  0  0  0  0  0  0  0  0  0  0  0
   -1.6021    0.7915    2.9895 C   0  0  0  0  0  0  0  0  0  0  0  0
   -0.3363    0.3492    0.7381 N   0  0  0  0  0  0  0  0  0  0  0  0
   -1.2959   -1.8440    0.5559 C   0  0  0  0  0  0  0  0  0  0  0  0
    0.3079    0.1024   -0.4240 C   0  0  0  0  0  0  0  0  0  0  0  0
   -0.6020   -2.0106   -0.6216 C   0  0  0  0  0  0  0  0  0  0  0  0
    0.2001   -1.0512   -1.1223 N   0  0  0  0  0  0  0  0  0  0  0  0
    1.1593    1.1397   -0.9411 N   0  0  0  0  0  0  0  0  0  0  0  0
   -0.7187   -3.2869   -1.3981 C   0  0  0  0  0  0  0  0  0  0  0  0
    1.8640    1.0138   -2.1047 N   0  0  0  0  0  0  0  0  0  0  0  0
    1.3838    2.3759   -0.3584 C   0  0  0  0  0  0  0  0  0  0  0  0
    2.5152    2.1708   -2.2285 C   0  0  0  0  0  0  0  0  0  0  0  0
    2.2555    3.0572   -1.1722 C   0  0  0  0  0  0  0  0  0  0  0  0
   -1.9449    1.6089    2.3456 H   0  0  0  0  0  0  0  0  0  0  0  0
   -2.1934    0.8224    3.9099 H   0  0  0  0  0  0  0  0  0  0  0  0
   -0.5498    0.9222    3.2649 H   0  0  0  0  0  0  0  0  0  0  0  0
   -1.9414   -2.6105    0.9628 H   0  0  0  0  0  0  0  0  0  0  0  0
   -1.7579   -3.4534   -1.6984 H   0  0  0  0  0  0  0  0  0  0  0  0
   -0.1041   -3.2503   -2.3034 H   0  0  0  0  0  0  0  0  0  0  0  0
   -0.3799   -4.1318   -0.7904 H   0  0  0  0  0  0  0  0  0  0  0  0
    0.9020    2.6422    0.5717 H   0  0  0  0  0  0  0  0  0  0  0  0
    3.1552    2.3189   -3.0893 H   0  0  0  0  0  0  0  0  0  0  0  0
    2.6477    4.0531   -1.0235 H   0  0  0  0  0  0  0  0  0  0  0  0
  1  2  1  0  0  0  0
  1  3  1  0  0  0  0
  2  4  2  0  0  0  0
  2  5  1  0  0  0  0
  4  6  1  0  0  0  0
  5  7  2  0  0  0  0
  6  8  2  0  0  0  0
  6  9  1  0  0  0  0
  7 10  1  0  0  0  0
  9 11  1  0  0  0  0
  9 12  1  0  0  0  0
 11 13  2  0  0  0  0
 12 14  2  0  0  0  0
  7  8  1  0  0  0  0
 13 14  1  0  0  0  0
  3 15  1  0  0  0  0
  3 16  1  0  0  0  0
  3 17  1  0  0  0  0
  5 18  1  0  0  0  0
 10 19  1  0  0  0  0
 10 20  1  0  0  0  0
 10 21  1  0  0  0  0
 12 22  1  0  0  0  0
 13 23  1  0  0  0  0
 14 24  1  0  0  0  0
M  END
>  <Column 1>
COc1cc(C)nc(-n2cccn2)n1 ZINC000000009772

>  <Total Molweight>
190.205

>  <cLogP>
0.5818

>  <cLogS>
1.098

>  <H-Acceptors>
5

>  <H-Donors>
0

>  <Total Surface Area>
153.02

>  <MMFF94 Energy>
43.319

$$$$
Compound 74
Actelion Java MolfileCreator 1.0

 26 27  0  0  0  0  0  0  0  0999 V2000
   -1.8029    0.4915    0.0819 S   0  0  0  0  0  0  0  0  0  0  0  0
   -2.7309   -0.5930    0.3400 O   0  0  0  0  0  0  0  0  0  0  0  0
   -2.2908    1.8132   -0.2410 O   0  0  0  0  0  0  0  0  0  0  0  0
   -0.7408    0.5581    1.3651 N   0  0  0  0  0  0  0  0  0  0  0  0
   -0.7332   -0.0259   -1.2435 C   0  0  0  0  0  0  0  0  0  0  0  0
    0.1600    1.6040    1.6287 C   0  0  0  0  0  0  0  0  0  0  0  0
   -0.4386   -0.6659    2.1162 C   0  0  0  0  0  0  0  0  0  0  0  0
    0.0493    0.9289   -1.9002 C   0  0  0  0  0  0  0  0  0  0  0  0
   -0.7081   -1.3662   -1.6405 C   0  0  0  0  0  0  0  0  0  0  0  0
    0.2386    2.6723    1.0516 O   0  0  0  0  0  0  0  0  0  0  0  0
    1.0305    1.1578    2.7744 C   0  0  0  0  0  0  0  0  0  0  0  0
    0.9565   -0.3651    2.6632 C   0  0  0  0  0  0  0  0  0  0  0  0
    0.8839    0.5316   -2.9440 C   0  0  0  0  0  0  0  0  0  0  0  0
    0.1291   -1.7550   -2.6863 C   0  0  0  0  0  0  0  0  0  0  0  0
    0.9255   -0.8083   -3.3336 C   0  0  0  0  0  0  0  0  0  0  0  0
   -0.4260   -1.5657    1.4965 H   0  0  0  0  0  0  0  0  0  0  0  0
   -1.1615   -0.7840    2.9295 H   0  0  0  0  0  0  0  0  0  0  0  0
    0.0095    1.9771   -1.6071 H   0  0  0  0  0  0  0  0  0  0  0  0
   -1.3368   -2.1064   -1.1511 H   0  0  0  0  0  0  0  0  0  0  0  0
    0.5957    1.5157    3.7125 H   0  0  0  0  0  0  0  0  0  0  0  0
    2.0524    1.5274    2.6644 H   0  0  0  0  0  0  0  0  0  0  0  0
    1.1488   -0.8663    3.6162 H   0  0  0  0  0  0  0  0  0  0  0  0
    1.7106   -0.7124    1.9454 H   0  0  0  0  0  0  0  0  0  0  0  0
    1.4957    1.2682   -3.4596 H   0  0  0  0  0  0  0  0  0  0  0  0
    0.1551   -2.7943   -3.0050 H   0  0  0  0  0  0  0  0  0  0  0  0
    1.5726   -1.1133   -4.1528 H   0  0  0  0  0  0  0  0  0  0  0  0
  1  2  2  0  0  0  0
  1  3  2  0  0  0  0
  1  4  1  0  0  0  0
  1  5  1  0  0  0  0
  4  6  1  0  0  0  0
  4  7  1  0  0  0  0
  5  8  2  0  0  0  0
  5  9  1  0  0  0  0
  6 10  2  0  0  0  0
  6 11  1  0  0  0  0
  7 12  1  0  0  0  0
  8 13  1  0  0  0  0
  9 14  2  0  0  0  0
 13 15  2  0  0  0  0
 11 12  1  0  0  0  0
 14 15  1  0  0  0  0
  7 16  1  0  0  0  0
  7 17  1  0  0  0  0
  8 18  1  0  0  0  0
  9 19  1  0  0  0  0
 11 20  1  0  0  0  0
 11 21  1  0  0  0  0
 12 22  1  0  0  0  0
 12 23  1  0  0  0  0
 13 24  1  0  0  0  0
 14 25  1  0  0  0  0
 15 26  1  0  0  0  0
M  END
>  <Column 1>
O=C1CCCN1S(=O)(=O)c1ccccc1 ZINC000000010405

>  <Total Molweight>
225.267

>  <cLogP>
0.9582

>  <cLogS>
-1.423

>  <H-Acceptors>
4

>  <H-Donors>
0

>  <Total Surface Area>
157.67

>  <MMFF94 Energy>
-62.745

$$$$
Compound 75
Actelion Java MolfileCreator 1.0

 30 32  0  0  0  0  0  0  0  0999 V2000
    2.5399    1.0312   -2.5399 O   0  0  0  0  0  0  0  0  0  0  0  0
    1.7354    1.4061   -1.5096 C   0  0  0  0  0  0  0  0  0  0  0  0
    2.4896    2.2123   -3.3668 C   0  0  0  0  0  0  0  0  0  0  0  0
    1.2410    2.6785   -1.6666 C   0  0  0  0  0  0  0  0  0  0  0  0
    1.4238    0.6338   -0.4101 C   0  0  0  0  0  0  0  0  0  0  0  0
    1.6696    3.2644   -2.8161 O   0  0  0  0  0  0  0  0  0  0  0  0
    0.4097    3.2530   -0.7313 C   0  0  0  0  0  0  0  0  0  0  0  0
    0.5685    1.1784    0.5635 C   0  0  0  0  0  0  0  0  0  0  0  0
    0.0757    2.4948    0.3955 C   0  0  0  0  0  0  0  0  0  0  0  0
    0.1980    0.3883    1.8016 C   0  0  0  0  0  0  0  0  0  0  0  0
   -0.4185   -0.9544    1.5368 C   0  0  0  0  0  0  0  0  0  0  0  0
   -1.6861   -1.1416    1.0185 C   0  0  0  0  0  0  0  0  0  0  0  0
    0.2637   -2.1183    1.8290 C   0  0  0  0  0  0  0  0  0  0  0  0
   -2.2268   -2.3568    0.8449 N   0  0  0  0  0  0  0  0  0  0  0  0
   -2.5122   -0.0802    0.6932 N   0  0  0  0  0  0  0  0  0  0  0  0
   -0.2369   -3.3520    1.6457 N   0  0  0  0  0  0  0  0  0  0  0  0
   -1.4767   -3.4152    1.1604 C   0  0  0  0  0  0  0  0  0  0  0  0
   -2.0168   -4.6530    0.9740 N   0  0  0  0  0  0  0  0  0  0  0  0
    2.0912    1.9356   -4.3497 H   0  0  0  0  0  0  0  0  0  0  0  0
    3.5090    2.5938   -3.4953 H   0  0  0  0  0  0  0  0  0  0  0  0
    1.8345   -0.3662   -0.3179 H   0  0  0  0  0  0  0  0  0  0  0  0
    0.0321    4.2606   -0.8645 H   0  0  0  0  0  0  0  0  0  0  0  0
   -0.5751    2.9357    1.1494 H   0  0  0  0  0  0  0  0  0  0  0  0
   -0.4937    0.9648    2.4302 H   0  0  0  0  0  0  0  0  0  0  0  0
    1.1069    0.2776    2.4082 H   0  0  0  0  0  0  0  0  0  0  0  0
    1.2697   -2.0982    2.2390 H   0  0  0  0  0  0  0  0  0  0  0  0
   -2.0956    0.6929    0.1936 H   0  0  0  0  0  0  0  0  0  0  0  0
   -3.4152   -0.3932    0.3566 H   0  0  0  0  0  0  0  0  0  0  0  0
   -1.4573   -5.4508    1.2159 H   0  0  0  0  0  0  0  0  0  0  0  0
   -2.9532   -4.7087    0.6163 H   0  0  0  0  0  0  0  0  0  0  0  0
  1  2  1  0  0  0  0
  1  3  1  0  0  0  0
  2  4  2  0  0  0  0
  2  5  1  0  0  0  0
  3  6  1  0  0  0  0
  4  7  1  0  0  0  0
  5  8  2  0  0  0  0
  7  9  2  0  0  0  0
  8 10  1  0  0  0  0
 10 11  1  0  0  0  0
 11 12  2  0  0  0  0
 11 13  1  0  0  0  0
 12 14  1  0  0  0  0
 12 15  1  0  0  0  0
 13 16  2  0  0  0  0
 14 17  2  0  0  0  0
 17 18  1  0  0  0  0
  4  6  1  0  0  0  0
  8  9  1  0  0  0  0
 16 17  1  0  0  0  0
  3 19  1  0  0  0  0
  3 20  1  0  0  0  0
  5 21  1  0  0  0  0
  7 22  1  0  0  0  0
  9 23  1  0  0  0  0
 10 24  1  0  0  0  0
 10 25  1  0  0  0  0
 13 26  1  0  0  0  0
 15 27  1  0  0  0  0
 15 28  1  0  0  0  0
 18 29  1  0  0  0  0
 18 30  1  0  0  0  0
M  END
>  <Column 1>
Nc1ncc(Cc2ccc3c(c2)OCO3)c(N)n1 ZINC000000010465

>  <Total Molweight>
244.253

>  <cLogP>
1.39

>  <cLogS>
-3.982

>  <H-Acceptors>
6

>  <H-Donors>
2

>  <Total Surface Area>
181.6

>  <MMFF94 Energy>
-110.33

$$$$
Compound 76
Actelion Java MolfileCreator 1.0

 32 33  0  0  0  0  0  0  0  0999 V2000
   -3.8348   -1.0945   -1.3291 O   0  0  0  0  0  0  0  0  0  0  0  0
   -2.8635   -0.7332   -0.4308 C   0  0  0  0  0  0  0  0  0  0  0  0
   -3.4436   -1.9790   -2.3723 C   0  0  0  0  0  0  0  0  0  0  0  0
   -3.2819    0.1592    0.5624 C   0  0  0  0  0  0  0  0  0  0  0  0
   -1.5377   -1.1710   -0.4278 C   0  0  0  0  0  0  0  0  0  0  0  0
   -4.5760    0.6047    0.5870 O   0  0  0  0  0  0  0  0  0  0  0  0
   -2.4123    0.6182    1.5420 C   0  0  0  0  0  0  0  0  0  0  0  0
   -0.6398   -0.7189    0.5583 C   0  0  0  0  0  0  0  0  0  0  0  0
   -1.0900    0.1792    1.5397 C   0  0  0  0  0  0  0  0  0  0  0  0
    0.7984   -1.1902    0.5638 C   0  0  0  0  0  0  0  0  0  0  0  0
    1.7864   -0.1309    0.1731 C   0  0  0  0  0  0  0  0  0  0  0  0
    2.6194    0.5322    1.0539 C   0  0  0  0  0  0  0  0  0  0  0  0
    1.8963    0.2766   -1.1423 C   0  0  0  0  0  0  0  0  0  0  0  0
    3.4548    1.5078    0.6661 N   0  0  0  0  0  0  0  0  0  0  0  0
    2.6175    0.2813    2.4133 N   0  0  0  0  0  0  0  0  0  0  0  0
    2.7394    1.2318   -1.5701 N   0  0  0  0  0  0  0  0  0  0  0  0
    3.4845    1.8160   -0.6328 C   0  0  0  0  0  0  0  0  0  0  0  0
    4.3391    2.8009   -1.0314 N   0  0  0  0  0  0  0  0  0  0  0  0
   -2.6653   -1.5310   -2.9989 H   0  0  0  0  0  0  0  0  0  0  0  0
   -4.3187   -2.1570   -3.0047 H   0  0  0  0  0  0  0  0  0  0  0  0
   -3.1217   -2.9450   -1.9697 H   0  0  0  0  0  0  0  0  0  0  0  0
   -1.1778   -1.8647   -1.1802 H   0  0  0  0  0  0  0  0  0  0  0  0
   -5.0034    0.1742   -0.1784 H   0  0  0  0  0  0  0  0  0  0  0  0
   -2.7614    1.3147    2.2984 H   0  0  0  0  0  0  0  0  0  0  0  0
   -0.4093    0.5468    2.3058 H   0  0  0  0  0  0  0  0  0  0  0  0
    0.9154   -2.0416   -0.1206 H   0  0  0  0  0  0  0  0  0  0  0  0
    1.0212   -1.6079    1.5527 H   0  0  0  0  0  0  0  0  0  0  0  0
    1.2829   -0.1643   -1.9233 H   0  0  0  0  0  0  0  0  0  0  0  0
    2.5736   -0.6742    2.7315 H   0  0  0  0  0  0  0  0  0  0  0  0
    3.2581    0.8903    2.9101 H   0  0  0  0  0  0  0  0  0  0  0  0
    4.3350    3.0594   -2.0017 H   0  0  0  0  0  0  0  0  0  0  0  0
    4.8749    3.2727   -0.3256 H   0  0  0  0  0  0  0  0  0  0  0  0
  1  2  1  0  0  0  0
  1  3  1  0  0  0  0
  2  4  2  0  0  0  0
  2  5  1  0  0  0  0
  4  6  1  0  0  0  0
  4  7  1  0  0  0  0
  5  8  2  0  0  0  0
  7  9  2  0  0  0  0
  8 10  1  0  0  0  0
 10 11  1  0  0  0  0
 11 12  2  0  0  0  0
 11 13  1  0  0  0  0
 12 14  1  0  0  0  0
 12 15  1  0  0  0  0
 13 16  2  0  0  0  0
 14 17  2  0  0  0  0
 17 18  1  0  0  0  0
  8  9  1  0  0  0  0
 16 17  1  0  0  0  0
  3 19  1  0  0  0  0
  3 20  1  0  0  0  0
  3 21  1  0  0  0  0
  5 22  1  0  0  0  0
  6 23  1  0  0  0  0
  7 24  1  0  0  0  0
  9 25  1  0  0  0  0
 10 26  1  0  0  0  0
 10 27  1  0  0  0  0
 13 28  1  0  0  0  0
 15 29  1  0  0  0  0
 15 30  1  0  0  0  0
 18 31  1  0  0  0  0
 18 32  1  0  0  0  0
M  END
>  <Column 1>
COc1cc(Cc2cnc(N)nc2N)ccc1O ZINC000000010467

>  <Total Molweight>
246.269

>  <cLogP>
0.8629

>  <cLogS>
-2.993

>  <H-Acceptors>
6

>  <H-Donors>
3

>  <Total Surface Area>
189.95

>  <MMFF94 Energy>
-108.11

$$$$
Compound 77
Actelion Java MolfileCreator 1.0

 40 42  0  0  0  0  0  0  0  0999 V2000
   -0.1583    0.7124    0.7916 N   0  0  0  0  0  0  0  0  0  0  0  0
    0.0104   -0.2095   -0.1673 C   0  0  0  0  0  0  0  0  0  0  0  0
    0.8637    1.5484    1.0718 C   0  0  0  0  0  0  0  0  0  0  0  0
    1.1596   -0.3254   -0.8499 N   0  0  0  0  0  0  0  0  0  0  0  0
   -1.0280   -1.0754   -0.4533 N   0  0  0  0  0  0  0  0  0  0  0  0
    2.0880    1.4806    0.4277 C   0  0  0  0  0  0  0  0  0  0  0  0
    0.6108    2.5363    2.1808 C   0  0  0  0  0  0  0  0  0  0  0  0
    2.1781    0.5127   -0.5592 C   0  0  0  0  0  0  0  0  0  0  0  0
   -2.3590   -0.7195    0.0364 C   0  0  0  0  0  0  0  0  0  0  0  0
   -0.9584   -1.8229   -1.7079 C   0  0  0  0  0  0  0  0  0  0  0  0
    3.2030    2.4408    0.7310 C   0  0  0  0  0  0  0  0  0  0  0  0
    1.5870    3.7091    2.1722 C   0  0  0  0  0  0  0  0  0  0  0  0
    3.4237    0.3257   -1.3752 C   0  0  0  0  0  0  0  0  0  0  0  0
   -3.3292   -1.9188   -0.0504 C   0  0  0  0  0  0  0  0  0  0  0  0
   -1.9810   -2.9811   -1.7296 C   0  0  0  0  0  0  0  0  0  0  0  0
    3.0159    3.1973    2.0466 C   0  0  0  0  0  0  0  0  0  0  0  0
   -3.3542   -2.5501   -1.3878 N   0  0  0  0  0  0  0  0  0  0  0  0
   -4.2685   -3.6896   -1.4011 C   0  0  0  0  0  0  0  0  0  0  0  0
    0.6927    1.9999    3.1343 H   0  0  0  0  0  0  0  0  0  0  0  0
   -0.4142    2.9184    2.1076 H   0  0  0  0  0  0  0  0  0  0  0  0
   -2.3308   -0.4033    1.0865 H   0  0  0  0  0  0  0  0  0  0  0  0
   -2.7560    0.1150   -0.5560 H   0  0  0  0  0  0  0  0  0  0  0  0
   -1.1558   -1.1457   -2.5489 H   0  0  0  0  0  0  0  0  0  0  0  0
    0.0337   -2.2662   -1.8583 H   0  0  0  0  0  0  0  0  0  0  0  0
    4.1612    1.9109    0.7760 H   0  0  0  0  0  0  0  0  0  0  0  0
    3.2616    3.1654   -0.0910 H   0  0  0  0  0  0  0  0  0  0  0  0
    1.3607    4.3805    1.3342 H   0  0  0  0  0  0  0  0  0  0  0  0
    1.4727    4.2919    3.0930 H   0  0  0  0  0  0  0  0  0  0  0  0
    4.2522    0.0036   -0.7371 H   0  0  0  0  0  0  0  0  0  0  0  0
    3.6939    1.2569   -1.8828 H   0  0  0  0  0  0  0  0  0  0  0  0
    3.2743   -0.4408   -2.1431 H   0  0  0  0  0  0  0  0  0  0  0  0
   -4.3345   -1.5627    0.2058 H   0  0  0  0  0  0  0  0  0  0  0  0
   -3.0432   -2.6585    0.7101 H   0  0  0  0  0  0  0  0  0  0  0  0
   -1.9743   -3.4223   -2.7336 H   0  0  0  0  0  0  0  0  0  0  0  0
   -1.6456   -3.7596   -1.0305 H   0  0  0  0  0  0  0  0  0  0  0  0
    3.2420    2.5342    2.8915 H   0  0  0  0  0  0  0  0  0  0  0  0
    3.7243    4.0318    2.0962 H   0  0  0  0  0  0  0  0  0  0  0  0
   -5.2888   -3.3645   -1.1689 H   0  0  0  0  0  0  0  0  0  0  0  0
   -3.9817   -4.4641   -0.6806 H   0  0  0  0  0  0  0  0  0  0  0  0
   -4.3017   -4.1422   -2.3982 H   0  0  0  0  0  0  0  0  0  0  0  0
  1  2  2  0  0  0  0
  1  3  1  0  0  0  0
  2  4  1  0  0  0  0
  2  5  1  0  0  0  0
  3  6  2  0  0  0  0
  3  7  1  0  0  0  0
  4  8  2  0  0  0  0
  5  9  1  0  0  0  0
  5 10  1  0  0  0  0
  6 11  1  0  0  0  0
  7 12  1  0  0  0  0
  8 13  1  0  0  0  0
  9 14  1  0  0  0  0
 10 15  1  0  0  0  0
 11 16  1  0  0  0  0
 14 17  1  0  0  0  0
 17 18  1  0  0  0  0
  6  8  1  0  0  0  0
 12 16  1  0  0  0  0
 15 17  1  0  0  0  0
  7 19  1  0  0  0  0
  7 20  1  0  0  0  0
  9 21  1  0  0  0  0
  9 22  1  0  0  0  0
 10 23  1  0  0  0  0
 10 24  1  0  0  0  0
 11 25  1  0  0  0  0
 11 26  1  0  0  0  0
 12 27  1  0  0  0  0
 12 28  1  0  0  0  0
 13 29  1  0  0  0  0
 13 30  1  0  0  0  0
 13 31  1  0  0  0  0
 14 32  1  0  0  0  0
 14 33  1  0  0  0  0
 15 34  1  0  0  0  0
 15 35  1  0  0  0  0
 16 36  1  0  0  0  0
 16 37  1  0  0  0  0
 18 38  1  0  0  0  0
 18 39  1  0  0  0  0
 18 40  1  0  0  0  0
M  END
>  <Column 1>
Cc1nc(N2CCN(C)CC2)nc2c1CCCC2 ZINC000000010490

>  <Total Molweight>
246.357

>  <cLogP>
1.853

>  <cLogS>
-1.972

>  <H-Acceptors>
4

>  <H-Donors>
0

>  <Total Surface Area>
198.98

>  <MMFF94 Energy>
5.8798

$$$$
Compound 78
Actelion Java MolfileCreator 1.0

 20 21  0  0  0  0  0  0  0  0999 V2000
    1.5739    2.8343    1.6526 N   0  0  0  0  0  0  0  0  0  0  0  0
    0.3074    2.5408    1.2941 C   0  0  0  0  0  0  0  0  0  0  0  0
    2.5127    1.9204    1.3367 C   0  0  0  0  0  0  0  0  0  0  0  0
   -0.0607    1.3770    0.6354 C   0  0  0  0  0  0  0  0  0  0  0  0
    2.2406    0.7313    0.6775 C   0  0  0  0  0  0  0  0  0  0  0  0
    0.9260    0.4495    0.2984 C   0  0  0  0  0  0  0  0  0  0  0  0
    0.6420   -0.7763   -0.3187 N   0  0  0  0  0  0  0  0  0  0  0  0
   -0.5611   -1.2113   -0.7466 N   0  0  0  0  0  0  0  0  0  0  0  0
   -0.7600   -1.3188   -2.0637 N   0  0  0  0  0  0  0  0  0  0  0  0
   -1.5931   -1.7009   -0.0010 C   0  0  0  0  0  0  0  0  0  0  0  0
   -1.9891   -1.8333   -2.1575 C   0  0  0  0  0  0  0  0  0  0  0  0
   -2.5587   -2.0944   -0.8974 C   0  0  0  0  0  0  0  0  0  0  0  0
   -0.4340    3.2892    1.5595 H   0  0  0  0  0  0  0  0  0  0  0  0
    3.5248    2.1722    1.6401 H   0  0  0  0  0  0  0  0  0  0  0  0
   -1.1035    1.2217    0.3837 H   0  0  0  0  0  0  0  0  0  0  0  0
    3.0485    0.0391    0.4685 H   0  0  0  0  0  0  0  0  0  0  0  0
    1.3979   -1.2443   -0.7972 H   0  0  0  0  0  0  0  0  0  0  0  0
   -1.5463   -1.7168    1.0775 H   0  0  0  0  0  0  0  0  0  0  0  0
   -2.4133   -2.0053   -3.1388 H   0  0  0  0  0  0  0  0  0  0  0  0
   -3.5266   -2.5204   -0.6752 H   0  0  0  0  0  0  0  0  0  0  0  0
  1  2  2  0  0  0  0
  1  3  1  0  0  0  0
  2  4  1  0  0  0  0
  3  5  2  0  0  0  0
  4  6  2  0  0  0  0
  6  7  1  0  0  0  0
  7  8  1  0  0  0  0
  8  9  1  0  0  0  0
  8 10  1  0  0  0  0
  9 11  2  0  0  0  0
 10 12  2  0  0  0  0
  5  6  1  0  0  0  0
 11 12  1  0  0  0  0
  2 13  1  0  0  0  0
  3 14  1  0  0  0  0
  4 15  1  0  0  0  0
  5 16  1  0  0  0  0
  7 17  1  0  0  0  0
 10 18  1  0  0  0  0
 11 19  1  0  0  0  0
 12 20  1  0  0  0  0
M  END
>  <Column 1>
c1cnn(Nc2ccncc2)c1 ZINC000000010545

>  <Total Molweight>
160.18

>  <cLogP>
0.8271

>  <cLogS>
-2.475

>  <H-Acceptors>
4

>  <H-Donors>
1

>  <Total Surface Area>
131.2

>  <MMFF94 Energy>
-33.624

$$$$
Compound 79
Actelion Java MolfileCreator 1.0

 31 32  0  0  0  0  0  0  0  0999 V2000
    0.2345   -0.0000   -1.2511 N   0  0  0  0  0  0  0  0  0  0  0  0
    0.3026    0.2409    0.0657 C   0  0  0  0  0  0  0  0  0  0  0  0
    1.2665    0.3888   -2.0374 C   0  0  0  0  0  0  0  0  0  0  0  0
    1.3522    0.8405    0.6386 N   0  0  0  0  0  0  0  0  0  0  0  0
   -0.7612   -0.1477    0.8679 N   0  0  0  0  0  0  0  0  0  0  0  0
    2.3872    1.0196   -1.5284 C   0  0  0  0  0  0  0  0  0  0  0  0
    1.1254    0.0970   -3.5034 C   0  0  0  0  0  0  0  0  0  0  0  0
    2.3664    1.2179   -0.1654 C   0  0  0  0  0  0  0  0  0  0  0  0
   -0.5218   -0.1608    2.3108 C   0  0  0  0  0  0  0  0  0  0  0  0
   -1.7294   -1.0663    0.2694 C   0  0  0  0  0  0  0  0  0  0  0  0
    3.5402    1.4631   -2.3666 C   0  0  0  0  0  0  0  0  0  0  0  0
   -1.8411   -0.2372    3.0960 C   0  0  0  0  0  0  0  0  0  0  0  0
   -3.0264   -1.1261    1.0925 C   0  0  0  0  0  0  0  0  0  0  0  0
   -2.7187   -1.3353    2.5528 N   0  0  0  0  0  0  0  0  0  0  0  0
    1.9310   -0.5621   -3.8409 H   0  0  0  0  0  0  0  0  0  0  0  0
    1.1475    1.0258   -4.0816 H   0  0  0  0  0  0  0  0  0  0  0  0
    0.1735   -0.4039   -3.7095 H   0  0  0  0  0  0  0  0  0  0  0  0
    3.1922    1.7052    0.3472 H   0  0  0  0  0  0  0  0  0  0  0  0
    0.1041   -1.0249    2.5670 H   0  0  0  0  0  0  0  0  0  0  0  0
   -0.0022    0.7436    2.6498 H   0  0  0  0  0  0  0  0  0  0  0  0
   -1.2895   -2.0699    0.2111 H   0  0  0  0  0  0  0  0  0  0  0  0
   -2.0114   -0.7627   -0.7460 H   0  0  0  0  0  0  0  0  0  0  0  0
    4.3197    1.9346   -1.7585 H   0  0  0  0  0  0  0  0  0  0  0  0
    3.2126    2.1970   -3.1098 H   0  0  0  0  0  0  0  0  0  0  0  0
    3.9933    0.6075   -2.8772 H   0  0  0  0  0  0  0  0  0  0  0  0
   -2.4138    0.6927    3.0122 H   0  0  0  0  0  0  0  0  0  0  0  0
   -1.6661   -0.4609    4.1524 H   0  0  0  0  0  0  0  0  0  0  0  0
   -3.6627   -1.9582    0.7774 H   0  0  0  0  0  0  0  0  0  0  0  0
   -3.5914   -0.1904    1.0217 H   0  0  0  0  0  0  0  0  0  0  0  0
   -2.2460   -2.2401    2.6746 H   0  0  0  0  0  0  0  0  0  0  0  0
   -3.5939   -1.3767    3.0890 H   0  0  0  0  0  0  0  0  0  0  0  0
  1  2  2  0  0  0  0
  1  3  1  0  0  0  0
  2  4  1  0  0  0  0
  2  5  1  0  0  0  0
  3  6  2  0  0  0  0
  3  7  1  0  0  0  0
  4  8  2  0  0  0  0
  5  9  1  0  0  0  0
  5 10  1  0  0  0  0
  6 11  1  0  0  0  0
  9 12  1  0  0  0  0
 10 13  1  0  0  0  0
 12 14  1  0  0  0  0
  6  8  1  0  0  0  0
 13 14  1  0  0  0  0
  7 15  1  0  0  0  0
  7 16  1  0  0  0  0
  7 17  1  0  0  0  0
  8 18  1  0  0  0  0
  9 19  1  0  0  0  0
  9 20  1  0  0  0  0
 10 21  1  0  0  0  0
 10 22  1  0  0  0  0
 11 23  1  0  0  0  0
 11 24  1  0  0  0  0
 11 25  1  0  0  0  0
 12 26  1  0  0  0  0
 12 27  1  0  0  0  0
 13 28  1  0  0  0  0
 13 29  1  0  0  0  0
 14 30  1  0  0  0  0
 14 31  1  0  0  0  0
M  CHG  1  14   1
M  END
>  <Column 1>
Cc1cnc(N2CC[NH2+]CC2)nc1C ZINC000000010718

>  <Total Molweight>
193.273

>  <cLogP>
0.4721

>  <cLogS>
-1.562

>  <H-Acceptors>
3

>  <H-Donors>
1

>  <Total Surface Area>
154.88

>  <MMFF94 Energy>
6.9065

$$$$
Compound 80
Actelion Java MolfileCreator 1.0

 28 30  0  0  1  0  0  0  0  0999 V2000
    0.7223   -2.8914   -1.9269 O   0  0  0  0  0  0  0  0  0  0  0  0
   -0.2088   -2.1873   -1.1165 C   0  0  0  0  0  0  0  0  0  0  0  0
    0.3334   -0.7690   -0.8455 C   0  0  0  0  0  0  0  0  0  0  0  0
   -0.2597   -2.8124    0.2999 C   0  0  0  0  0  0  0  0  0  0  0  0
   -0.7400    0.0348   -0.0637 C   0  0  0  0  0  0  0  0  0  0  0  0
    1.3687   -1.0804    0.2271 C   0  0  0  0  0  0  0  0  0  0  0  0
    0.3534   -1.7082    1.1650 N   0  0  0  0  0  0  0  0  0  0  0  0
   -0.4826    1.5163   -0.0669 C   0  0  0  0  0  0  0  0  0  0  0  0
   -0.6467   -0.5665    1.3557 C   0  0  0  0  0  0  0  0  0  0  0  0
    0.7172    1.9424    0.3983 N   0  0  0  0  0  0  0  0  0  0  0  0
   -1.4387    2.4162   -0.5280 C   0  0  0  0  0  0  0  0  0  0  0  0
    0.9183    3.2849    0.3802 C   0  0  0  0  0  0  0  0  0  0  0  0
   -1.2370    3.7510   -0.5387 N   0  0  0  0  0  0  0  0  0  0  0  0
   -0.0388    4.1703   -0.0779 C   0  0  0  0  0  0  0  0  0  0  0  0
    0.5975   -2.6245   -2.8585 H   0  0  0  0  0  0  0  0  0  0  0  0
   -1.1883   -2.2028   -1.6041 H   0  0  0  0  0  0  0  0  0  0  0  0
    0.7413   -0.2746   -1.7308 H   0  0  0  0  0  0  0  0  0  0  0  0
   -1.2742   -2.9980    0.6631 H   0  0  0  0  0  0  0  0  0  0  0  0
    0.3686   -3.7011    0.4100 H   0  0  0  0  0  0  0  0  0  0  0  0
   -1.7353   -0.1566   -0.4842 H   0  0  0  0  0  0  0  0  0  0  0  0
    2.1208   -1.8324   -0.0326 H   0  0  0  0  0  0  0  0  0  0  0  0
    1.8398   -0.2350    0.7328 H   0  0  0  0  0  0  0  0  0  0  0  0
    0.7635   -2.0523    2.0437 H   0  0  0  0  0  0  0  0  0  0  0  0
   -0.2280    0.1004    2.1162 H   0  0  0  0  0  0  0  0  0  0  0  0
   -1.5883   -0.9947    1.7121 H   0  0  0  0  0  0  0  0  0  0  0  0
   -2.4049    2.0992   -0.9076 H   0  0  0  0  0  0  0  0  0  0  0  0
    1.8777    3.6337    0.7474 H   0  0  0  0  0  0  0  0  0  0  0  0
    0.1302    5.2417   -0.0881 H   0  0  0  0  0  0  0  0  0  0  0  0
  1  2  1  0  0  0  0
  2  3  1  0  0  0  0
  2  4  1  0  0  0  0
  3  5  1  0  0  0  0
  3  6  1  0  0  0  0
  4  7  1  0  0  0  0
  5  8  1  0  0  0  0
  5  9  1  0  0  0  0
  8 10  2  0  0  0  0
  8 11  1  0  0  0  0
 10 12  1  0  0  0  0
 11 13  2  0  0  0  0
 12 14  2  0  0  0  0
  6  7  1  0  0  0  0
  7  9  1  0  0  0  0
 13 14  1  0  0  0  0
  1 15  1  0  0  0  0
  2 16  1  0  0  0  0
  3 17  1  0  0  0  0
  4 18  1  0  0  0  0
  4 19  1  0  0  0  0
  5 20  1  0  0  0  0
  6 21  1  0  0  0  0
  6 22  1  0  0  0  0
  7 23  1  0  0  0  0
  9 24  1  0  0  0  0
  9 25  1  0  0  0  0
 11 26  1  0  0  0  0
 12 27  1  0  0  0  0
 14 28  1  0  0  0  0
M  CHG  1   7   1
M  END
>  <Column 1>
O[C@H]1C[N@H+]2C[C@@H](c3cnccn3)[C@H]1C2 ZINC000000010753

>  <Total Molweight>
192.241

>  <cLogP>
-2.3775

>  <cLogS>
-0.037

>  <H-Acceptors>
3

>  <H-Donors>
2

>  <Total Surface Area>
153.25

>  <MMFF94 Energy>
98.919

$$$$
Compound 81
Actelion Java MolfileCreator 1.0

 25 27  0  0  0  0  0  0  0  0999 V2000
   -1.6863   -0.3210    1.4453 O   0  0  0  0  0  0  0  0  0  0  0  0
   -2.4317    0.5710    2.2146 N   0  0  0  0  0  0  0  0  0  0  0  0
   -0.7849    0.4346    0.7516 C   0  0  0  0  0  0  0  0  0  0  0  0
   -1.9009    1.7565    1.9112 C   0  0  0  0  0  0  0  0  0  0  0  0
   -0.8784    1.7191    1.0139 N   0  0  0  0  0  0  0  0  0  0  0  0
    0.1467   -0.2755   -0.1380 C   0  0  0  0  0  0  0  0  0  0  0  0
   -2.2662    2.9407    2.3905 N   0  0  0  0  0  0  0  0  0  0  0  0
   -0.4285   -1.4603   -0.8954 C   0  0  0  0  0  0  0  0  0  0  0  0
    0.6886    0.5717   -1.2970 C   0  0  0  0  0  0  0  0  0  0  0  0
    1.3295   -0.9300    0.5843 C   0  0  0  0  0  0  0  0  0  0  0  0
    0.8470   -1.7908   -1.5910 N   0  0  0  0  0  0  0  0  0  0  0  0
    1.1738   -0.5050   -2.2686 C   0  0  0  0  0  0  0  0  0  0  0  0
    1.7901   -1.9598   -0.4495 C   0  0  0  0  0  0  0  0  0  0  0  0
   -1.7969    3.7843    2.0947 H   0  0  0  0  0  0  0  0  0  0  0  0
   -3.0182    3.0291    3.0587 H   0  0  0  0  0  0  0  0  0  0  0  0
   -1.2319   -1.2036   -1.5973 H   0  0  0  0  0  0  0  0  0  0  0  0
   -0.7754   -2.2848   -0.2600 H   0  0  0  0  0  0  0  0  0  0  0  0
    1.4977    1.2410   -0.9844 H   0  0  0  0  0  0  0  0  0  0  0  0
   -0.0976    1.1784   -1.7631 H   0  0  0  0  0  0  0  0  0  0  0  0
    2.1185   -0.2114    0.8320 H   0  0  0  0  0  0  0  0  0  0  0  0
    1.0197   -1.4308    1.5097 H   0  0  0  0  0  0  0  0  0  0  0  0
    2.2407   -0.4148   -2.5005 H   0  0  0  0  0  0  0  0  0  0  0  0
    0.6275   -0.4398   -3.2170 H   0  0  0  0  0  0  0  0  0  0  0  0
    2.8351   -1.8203   -0.7474 H   0  0  0  0  0  0  0  0  0  0  0  0
    1.6992   -2.9749   -0.0454 H   0  0  0  0  0  0  0  0  0  0  0  0
  1  2  1  0  0  0  0
  1  3  1  0  0  0  0
  2  4  2  0  0  0  0
  3  5  2  0  0  0  0
  3  6  1  0  0  0  0
  4  7  1  0  0  0  0
  6  8  1  0  0  0  0
  6  9  1  0  0  0  0
  6 10  1  0  0  0  0
  8 11  1  0  0  0  0
  9 12  1  0  0  0  0
 10 13  1  0  0  0  0
  4  5  1  0  0  0  0
 11 12  1  0  0  0  0
 11 13  1  0  0  0  0
  7 14  1  0  0  0  0
  7 15  1  0  0  0  0
  8 16  1  0  0  0  0
  8 17  1  0  0  0  0
  9 18  1  0  0  0  0
  9 19  1  0  0  0  0
 10 20  1  0  0  0  0
 10 21  1  0  0  0  0
 12 22  1  0  0  0  0
 12 23  1  0  0  0  0
 13 24  1  0  0  0  0
 13 25  1  0  0  0  0
M  END
>  <Column 1>
Nc1noc(C23CCN(CC2)C3)n1 ZINC000000011110

>  <Total Molweight>
180.21

>  <cLogP>
-0.0969

>  <cLogS>
-1.236

>  <H-Acceptors>
5

>  <H-Donors>
1

>  <Total Surface Area>
131.5

>  <MMFF94 Energy>
-41.192

$$$$
Compound 82
Actelion Java MolfileCreator 1.0

 31 32  0  0  0  0  0  0  0  0999 V2000
   -1.7201    0.9380   -0.7034 O   0  0  0  0  0  0  0  0  0  0  0  0
   -0.4763    1.0475   -0.1316 C   0  0  0  0  0  0  0  0  0  0  0  0
   -2.5354    2.1012   -0.7445 C   0  0  0  0  0  0  0  0  0  0  0  0
    0.2385   -0.1534    0.0662 C   0  0  0  0  0  0  0  0  0  0  0  0
    0.1133    2.2749    0.2100 C   0  0  0  0  0  0  0  0  0  0  0  0
   -0.3186   -1.4788   -0.2529 C   0  0  0  0  0  0  0  0  0  0  0  0
    1.5441   -0.0652    0.5944 C   0  0  0  0  0  0  0  0  0  0  0  0
    1.4044    2.3379    0.7440 C   0  0  0  0  0  0  0  0  0  0  0  0
    0.4815   -2.3300   -0.8988 N   0  0  0  0  0  0  0  0  0  0  0  0
   -1.5423   -1.7688    0.1866 N   0  0  0  0  0  0  0  0  0  0  0  0
    2.1213    1.1625    0.9333 C   0  0  0  0  0  0  0  0  0  0  0  0
    1.8434    3.6024    1.0280 O   0  0  0  0  0  0  0  0  0  0  0  0
   -0.0497   -3.5170   -1.1325 C   0  0  0  0  0  0  0  0  0  0  0  0
   -1.9629   -2.9853   -0.1068 C   0  0  0  0  0  0  0  0  0  0  0  0
    3.1510    3.7221    1.5748 C   0  0  0  0  0  0  0  0  0  0  0  0
   -1.2618   -3.8970   -0.7620 N   0  0  0  0  0  0  0  0  0  0  0  0
    0.7162   -4.4244   -1.8074 N   0  0  0  0  0  0  0  0  0  0  0  0
   -3.2190   -3.3301    0.3044 N   0  0  0  0  0  0  0  0  0  0  0  0
   -2.6833    2.5206    0.2564 H   0  0  0  0  0  0  0  0  0  0  0  0
   -3.5168    1.8074   -1.1294 H   0  0  0  0  0  0  0  0  0  0  0  0
   -2.1201    2.8465   -1.4305 H   0  0  0  0  0  0  0  0  0  0  0  0
   -0.4085    3.2145    0.0585 H   0  0  0  0  0  0  0  0  0  0  0  0
    2.1216   -0.9759    0.7516 H   0  0  0  0  0  0  0  0  0  0  0  0
    3.1272    1.1590    1.3390 H   0  0  0  0  0  0  0  0  0  0  0  0
    3.2235    3.2106    2.5404 H   0  0  0  0  0  0  0  0  0  0  0  0
    3.3454    4.7853    1.7462 H   0  0  0  0  0  0  0  0  0  0  0  0
    3.9071    3.3541    0.8736 H   0  0  0  0  0  0  0  0  0  0  0  0
    1.6261   -4.1364   -2.1215 H   0  0  0  0  0  0  0  0  0  0  0  0
    0.3148   -5.3224   -2.0123 H   0  0  0  0  0  0  0  0  0  0  0  0
   -3.5617   -4.2456    0.0746 H   0  0  0  0  0  0  0  0  0  0  0  0
   -3.7623   -2.6326    0.7827 H   0  0  0  0  0  0  0  0  0  0  0  0
  1  2  1  0  0  0  0
  1  3  1  0  0  0  0
  2  4  2  0  0  0  0
  2  5  1  0  0  0  0
  4  6  1  0  0  0  0
  4  7  1  0  0  0  0
  5  8  2  0  0  0  0
  6  9  2  0  0  0  0
  6 10  1  0  0  0  0
  7 11  2  0  0  0  0
  8 12  1  0  0  0  0
  9 13  1  0  0  0  0
 10 14  2  0  0  0  0
 12 15  1  0  0  0  0
 13 16  2  0  0  0  0
 13 17  1  0  0  0  0
 14 18  1  0  0  0  0
  8 11  1  0  0  0  0
 14 16  1  0  0  0  0
  3 19  1  0  0  0  0
  3 20  1  0  0  0  0
  3 21  1  0  0  0  0
  5 22  1  0  0  0  0
  7 23  1  0  0  0  0
 11 24  1  0  0  0  0
 15 25  1  0  0  0  0
 15 26  1  0  0  0  0
 15 27  1  0  0  0  0
 17 28  1  0  0  0  0
 17 29  1  0  0  0  0
 18 30  1  0  0  0  0
 18 31  1  0  0  0  0
M  END
>  <Column 1>
COc1ccc(-c2nc(N)nc(N)n2)c(OC)c1 ZINC000000011423

>  <Total Molweight>
247.257

>  <cLogP>
0.8601

>  <cLogS>
-3.864

>  <H-Acceptors>
7

>  <H-Donors>
2

>  <Total Surface Area>
190.86

>  <MMFF94 Energy>
-190.64

$$$$
Compound 83
Actelion Java MolfileCreator 1.0

 27 28  0  0  0  0  0  0  0  0999 V2000
    0.2345    0.3908    1.9553 O   0  0  0  0  0  0  0  0  0  0  0  0
    0.4766    1.2813    0.9384 C   0  0  0  0  0  0  0  0  0  0  0  0
    0.7244    0.7147    3.2489 C   0  0  0  0  0  0  0  0  0  0  0  0
    0.1885    0.8411   -0.3736 C   0  0  0  0  0  0  0  0  0  0  0  0
    0.9367    2.5899    1.1517 C   0  0  0  0  0  0  0  0  0  0  0  0
   -0.2835   -0.5212   -0.6732 C   0  0  0  0  0  0  0  0  0  0  0  0
    0.3660    1.7557   -1.4351 C   0  0  0  0  0  0  0  0  0  0  0  0
    1.1147    3.4678    0.0808 C   0  0  0  0  0  0  0  0  0  0  0  0
   -1.3001   -0.6333   -1.5310 N   0  0  0  0  0  0  0  0  0  0  0  0
    0.3751   -1.5471   -0.1357 N   0  0  0  0  0  0  0  0  0  0  0  0
    0.8270    3.0532   -1.2129 C   0  0  0  0  0  0  0  0  0  0  0  0
   -1.6658   -1.8751   -1.7944 C   0  0  0  0  0  0  0  0  0  0  0  0
   -0.0824   -2.7381   -0.4746 C   0  0  0  0  0  0  0  0  0  0  0  0
   -1.0962   -2.9603   -1.2960 N   0  0  0  0  0  0  0  0  0  0  0  0
   -2.7135   -2.0510   -2.6528 N   0  0  0  0  0  0  0  0  0  0  0  0
    0.5455   -3.8261    0.0617 N   0  0  0  0  0  0  0  0  0  0  0  0
    1.8010    0.9137    3.2306 H   0  0  0  0  0  0  0  0  0  0  0  0
    0.5580   -0.1522    3.8956 H   0  0  0  0  0  0  0  0  0  0  0  0
    0.1721    1.5577    3.6765 H   0  0  0  0  0  0  0  0  0  0  0  0
    1.1525    2.9631    2.1474 H   0  0  0  0  0  0  0  0  0  0  0  0
    0.1455    1.4445   -2.4556 H   0  0  0  0  0  0  0  0  0  0  0  0
    1.4698    4.4793    0.2611 H   0  0  0  0  0  0  0  0  0  0  0  0
    0.9581    3.7348   -2.0491 H   0  0  0  0  0  0  0  0  0  0  0  0
   -3.1709   -1.2332   -3.0156 H   0  0  0  0  0  0  0  0  0  0  0  0
   -3.0149   -2.9897   -2.8457 H   0  0  0  0  0  0  0  0  0  0  0  0
    0.2013   -4.7395   -0.1743 H   0  0  0  0  0  0  0  0  0  0  0  0
    1.3036   -3.6606    0.7003 H   0  0  0  0  0  0  0  0  0  0  0  0
  1  2  1  0  0  0  0
  1  3  1  0  0  0  0
  2  4  2  0  0  0  0
  2  5  1  0  0  0  0
  4  6  1  0  0  0  0
  4  7  1  0  0  0  0
  5  8  2  0  0  0  0
  6  9  2  0  0  0  0
  6 10  1  0  0  0  0
  7 11  2  0  0  0  0
  9 12  1  0  0  0  0
 10 13  2  0  0  0  0
 12 14  2  0  0  0  0
 12 15  1  0  0  0  0
 13 16  1  0  0  0  0
  8 11  1  0  0  0  0
 13 14  1  0  0  0  0
  3 17  1  0  0  0  0
  3 18  1  0  0  0  0
  3 19  1  0  0  0  0
  5 20  1  0  0  0  0
  7 21  1  0  0  0  0
  8 22  1  0  0  0  0
 11 23  1  0  0  0  0
 15 24  1  0  0  0  0
 15 25  1  0  0  0  0
 16 26  1  0  0  0  0
 16 27  1  0  0  0  0
M  END
>  <Column 1>
COc1ccccc1-c1nc(N)nc(N)n1 ZINC000000011428

>  <Total Molweight>
217.231

>  <cLogP>
0.9301

>  <cLogS>
-3.846

>  <H-Acceptors>
6

>  <H-Donors>
2

>  <Total Surface Area>
168.6

>  <MMFF94 Energy>
-192.61

$$$$
Compound 84
Actelion Java MolfileCreator 1.0

 31 32  0  0  0  0  0  0  0  0999 V2000
    0.0000    3.2874   -0.9384 O   0  0  0  0  0  0  0  0  0  0  0  0
    0.2864    2.1554   -0.2145 C   0  0  0  0  0  0  0  0  0  0  0  0
   -0.8390    3.1508   -2.0760 C   0  0  0  0  0  0  0  0  0  0  0  0
    1.1206    2.3344    0.9044 C   0  0  0  0  0  0  0  0  0  0  0  0
   -0.1946    0.8743   -0.5244 C   0  0  0  0  0  0  0  0  0  0  0  0
    1.5499    3.6163    1.1420 O   0  0  0  0  0  0  0  0  0  0  0  0
    1.4560    1.2302    1.6891 C   0  0  0  0  0  0  0  0  0  0  0  0
    0.1330   -0.2538    0.2559 C   0  0  0  0  0  0  0  0  0  0  0  0
    2.3935    3.8315    2.2640 C   0  0  0  0  0  0  0  0  0  0  0  0
    0.9681   -0.0418    1.3668 C   0  0  0  0  0  0  0  0  0  0  0  0
   -0.3794   -1.6013   -0.0792 C   0  0  0  0  0  0  0  0  0  0  0  0
   -1.1663   -1.7182   -1.1494 N   0  0  0  0  0  0  0  0  0  0  0  0
   -0.0220   -2.6145    0.7105 N   0  0  0  0  0  0  0  0  0  0  0  0
   -1.5923   -2.9445   -1.3978 C   0  0  0  0  0  0  0  0  0  0  0  0
   -0.5093   -3.7927    0.3624 C   0  0  0  0  0  0  0  0  0  0  0  0
   -1.2958   -4.0135   -0.6777 N   0  0  0  0  0  0  0  0  0  0  0  0
   -2.4020   -3.1208   -2.4831 N   0  0  0  0  0  0  0  0  0  0  0  0
   -0.1739   -4.8653    1.1380 N   0  0  0  0  0  0  0  0  0  0  0  0
   -0.3823    2.4992   -2.8282 H   0  0  0  0  0  0  0  0  0  0  0  0
   -0.9578    4.1420   -2.5246 H   0  0  0  0  0  0  0  0  0  0  0  0
   -1.8347    2.7938   -1.7926 H   0  0  0  0  0  0  0  0  0  0  0  0
   -0.8391    0.7269   -1.3863 H   0  0  0  0  0  0  0  0  0  0  0  0
    2.0956    1.3192    2.5608 H   0  0  0  0  0  0  0  0  0  0  0  0
    1.8824    3.5752    3.1979 H   0  0  0  0  0  0  0  0  0  0  0  0
    2.6359    4.8980    2.3006 H   0  0  0  0  0  0  0  0  0  0  0  0
    3.3344    3.2806    2.1625 H   0  0  0  0  0  0  0  0  0  0  0  0
    1.2516   -0.8796    2.0029 H   0  0  0  0  0  0  0  0  0  0  0  0
   -2.6370   -2.3188   -3.0406 H   0  0  0  0  0  0  0  0  0  0  0  0
   -2.7319   -4.0492   -2.6814 H   0  0  0  0  0  0  0  0  0  0  0  0
   -0.5385   -5.7666    0.8832 H   0  0  0  0  0  0  0  0  0  0  0  0
    0.4229   -4.7134    1.9318 H   0  0  0  0  0  0  0  0  0  0  0  0
  1  2  1  0  0  0  0
  1  3  1  0  0  0  0
  2  4  2  0  0  0  0
  2  5  1  0  0  0  0
  4  6  1  0  0  0  0
  4  7  1  0  0  0  0
  5  8  2  0  0  0  0
  6  9  1  0  0  0  0
  7 10  2  0  0  0  0
  8 11  1  0  0  0  0
 11 12  2  0  0  0  0
 11 13  1  0  0  0  0
 12 14  1  0  0  0  0
 13 15  2  0  0  0  0
 14 16  2  0  0  0  0
 14 17  1  0  0  0  0
 15 18  1  0  0  0  0
  8 10  1  0  0  0  0
 15 16  1  0  0  0  0
  3 19  1  0  0  0  0
  3 20  1  0  0  0  0
  3 21  1  0  0  0  0
  5 22  1  0  0  0  0
  7 23  1  0  0  0  0
  9 24  1  0  0  0  0
  9 25  1  0  0  0  0
  9 26  1  0  0  0  0
 10 27  1  0  0  0  0
 17 28  1  0  0  0  0
 17 29  1  0  0  0  0
 18 30  1  0  0  0  0
 18 31  1  0  0  0  0
M  END
>  <Column 1>
COc1ccc(-c2nc(N)nc(N)n2)cc1OC ZINC000000011431

>  <Total Molweight>
247.257

>  <cLogP>
0.8601

>  <cLogS>
-3.864

>  <H-Acceptors>
7

>  <H-Donors>
2

>  <Total Surface Area>
190.86

>  <MMFF94 Energy>
-187.65

$$$$
Compound 85
Actelion Java MolfileCreator 1.0

 28 30  0  0  0  0  0  0  0  0999 V2000
   -1.1204   -0.6401   -2.4021 O   0  0  0  0  0  0  0  0  0  0  0  0
   -0.9295   -1.8323   -3.1004 N   0  0  0  0  0  0  0  0  0  0  0  0
    0.1051   -0.2845   -1.9203 C   0  0  0  0  0  0  0  0  0  0  0  0
    0.3788   -2.0590   -2.9685 C   0  0  0  0  0  0  0  0  0  0  0  0
    1.0585   -1.1255   -2.2477 N   0  0  0  0  0  0  0  0  0  0  0  0
    0.1767    0.9639   -1.1250 C   0  0  0  0  0  0  0  0  0  0  0  0
    1.0638   -3.0853   -3.4613 N   0  0  0  0  0  0  0  0  0  0  0  0
   -0.0543    0.7566    0.3657 C   0  0  0  0  0  0  0  0  0  0  0  0
   -1.3658    0.1051    0.7835 C   0  0  0  0  0  0  0  0  0  0  0  0
   -0.1367    2.0866    1.1411 C   0  0  0  0  0  0  0  0  0  0  0  0
    0.9655   -0.1429    1.0870 C   0  0  0  0  0  0  0  0  0  0  0  0
   -1.0909    0.2074    2.2425 N   0  0  0  0  0  0  0  0  0  0  0  0
   -0.8470    1.6621    2.4262 C   0  0  0  0  0  0  0  0  0  0  0  0
    0.2143   -0.4967    2.3726 C   0  0  0  0  0  0  0  0  0  0  0  0
    1.1598    1.4247   -1.2818 H   0  0  0  0  0  0  0  0  0  0  0  0
   -0.5610    1.6732   -1.5215 H   0  0  0  0  0  0  0  0  0  0  0  0
    2.0579   -3.1650   -3.3041 H   0  0  0  0  0  0  0  0  0  0  0  0
    0.6120   -3.8083   -4.0022 H   0  0  0  0  0  0  0  0  0  0  0  0
   -1.4818   -0.9372    0.4642 H   0  0  0  0  0  0  0  0  0  0  0  0
   -2.2607    0.6668    0.4900 H   0  0  0  0  0  0  0  0  0  0  0  0
   -0.7388    2.8298    0.6052 H   0  0  0  0  0  0  0  0  0  0  0  0
    0.8514    2.5160    1.3374 H   0  0  0  0  0  0  0  0  0  0  0  0
    1.1885   -1.0564    0.5262 H   0  0  0  0  0  0  0  0  0  0  0  0
    1.9073    0.3775    1.2902 H   0  0  0  0  0  0  0  0  0  0  0  0
   -0.2603    1.8797    3.3256 H   0  0  0  0  0  0  0  0  0  0  0  0
   -1.8042    2.1871    2.5270 H   0  0  0  0  0  0  0  0  0  0  0  0
    0.7610   -0.2037    3.2758 H   0  0  0  0  0  0  0  0  0  0  0  0
    0.0438   -1.5782    2.4316 H   0  0  0  0  0  0  0  0  0  0  0  0
  1  2  1  0  0  0  0
  1  3  1  0  0  0  0
  2  4  2  0  0  0  0
  3  5  2  0  0  0  0
  3  6  1  0  0  0  0
  4  7  1  0  0  0  0
  6  8  1  0  0  0  0
  8  9  1  0  0  0  0
  8 10  1  0  0  0  0
  8 11  1  0  0  0  0
  9 12  1  0  0  0  0
 10 13  1  0  0  0  0
 11 14  1  0  0  0  0
  4  5  1  0  0  0  0
 12 13  1  0  0  0  0
 12 14  1  0  0  0  0
  6 15  1  0  0  0  0
  6 16  1  0  0  0  0
  7 17  1  0  0  0  0
  7 18  1  0  0  0  0
  9 19  1  0  0  0  0
  9 20  1  0  0  0  0
 10 21  1  0  0  0  0
 10 22  1  0  0  0  0
 11 23  1  0  0  0  0
 11 24  1  0  0  0  0
 13 25  1  0  0  0  0
 13 26  1  0  0  0  0
 14 27  1  0  0  0  0
 14 28  1  0  0  0  0
M  END
>  <Column 1>
Nc1noc(CC23CCN(CC2)C3)n1 ZINC000000011896

>  <Total Molweight>
194.237

>  <cLogP>
0.4294

>  <cLogS>
-1.186

>  <H-Acceptors>
5

>  <H-Donors>
1

>  <Total Surface Area>
145.26

>  <MMFF94 Energy>
-39.926

$$$$
Compound 86
Actelion Java MolfileCreator 1.0

 29 30  0  0  0  0  0  0  0  0999 V2000
   -3.5802    1.9878   -0.7153 O   0  0  0  0  0  0  0  0  0  0  0  0
   -2.4937    1.3957   -0.7053 N   0  0  0  0  0  0  0  0  0  0  0  0
   -1.8680    1.0768    0.3157 O   0  0  0  0  0  0  0  0  0  0  0  0
   -1.9228    1.0356   -1.9783 C   0  0  0  0  0  0  0  0  0  0  0  0
   -2.3616    1.5283   -3.1228 N   0  0  0  0  0  0  0  0  0  0  0  0
   -0.8872    0.1552   -2.1659 N   0  0  0  0  0  0  0  0  0  0  0  0
   -1.5733    0.9584   -4.0859 C   0  0  0  0  0  0  0  0  0  0  0  0
   -0.6553    0.1039   -3.5220 C   0  0  0  0  0  0  0  0  0  0  0  0
   -0.1560   -0.6438   -1.1973 C   0  0  0  0  0  0  0  0  0  0  0  0
    1.0890    0.0724   -0.6794 C   0  0  0  0  0  0  0  0  0  0  0  0
    1.8250   -0.7345    0.3905 C   0  0  0  0  0  0  0  0  0  0  0  0
    1.3470   -0.4748    1.7337 N   0  0  0  0  0  0  0  0  0  0  0  0
    1.7638    0.5796    2.5103 C   0  0  0  0  0  0  0  0  0  0  0  0
    0.2476   -1.1466    2.3512 C   0  0  0  0  0  0  0  0  0  0  0  0
    2.6033    1.4106    2.2071 O   0  0  0  0  0  0  0  0  0  0  0  0
    1.0823    0.5760    3.6951 O   0  0  0  0  0  0  0  0  0  0  0  0
    0.3150   -0.6315    3.7692 C   0  0  0  0  0  0  0  0  0  0  0  0
   -1.7091    1.1908   -5.1353 H   0  0  0  0  0  0  0  0  0  0  0  0
    0.1167   -0.5157   -3.9587 H   0  0  0  0  0  0  0  0  0  0  0  0
   -0.8431   -0.9446   -0.4042 H   0  0  0  0  0  0  0  0  0  0  0  0
    0.1364   -1.5716   -1.7058 H   0  0  0  0  0  0  0  0  0  0  0  0
    0.8387    1.0727   -0.3064 H   0  0  0  0  0  0  0  0  0  0  0  0
    1.7704    0.2223   -1.5273 H   0  0  0  0  0  0  0  0  0  0  0  0
    2.8808   -0.4386    0.3669 H   0  0  0  0  0  0  0  0  0  0  0  0
    1.7824   -1.8119    0.1991 H   0  0  0  0  0  0  0  0  0  0  0  0
    0.3530   -2.2328    2.2889 H   0  0  0  0  0  0  0  0  0  0  0  0
   -0.6805   -0.8364    1.8659 H   0  0  0  0  0  0  0  0  0  0  0  0
    0.8362   -1.3279    4.4347 H   0  0  0  0  0  0  0  0  0  0  0  0
   -0.6762   -0.4223    4.1817 H   0  0  0  0  0  0  0  0  0  0  0  0
  1  2  2  0  0  0  0
  2  3  1  0  0  0  0
  2  4  1  0  0  0  0
  4  5  2  0  0  0  0
  4  6  1  0  0  0  0
  5  7  1  0  0  0  0
  6  8  1  0  0  0  0
  6  9  1  0  0  0  0
  9 10  1  0  0  0  0
 10 11  1  0  0  0  0
 11 12  1  0  0  0  0
 12 13  1  0  0  0  0
 12 14  1  0  0  0  0
 13 15  2  0  0  0  0
 13 16  1  0  0  0  0
 14 17  1  0  0  0  0
  7  8  2  0  0  0  0
 16 17  1  0  0  0  0
  7 18  1  0  0  0  0
  8 19  1  0  0  0  0
  9 20  1  0  0  0  0
  9 21  1  0  0  0  0
 10 22  1  0  0  0  0
 10 23  1  0  0  0  0
 11 24  1  0  0  0  0
 11 25  1  0  0  0  0
 14 26  1  0  0  0  0
 14 27  1  0  0  0  0
 17 28  1  0  0  0  0
 17 29  1  0  0  0  0
M  CHG  2   2   1   3  -1
M  END
>  <Column 1>
O=C1OCCN1CCCn1ccnc1[N+](=O)[O-] ZINC000000012332

>  <Total Molweight>
240.218

>  <cLogP>
-0.6131

>  <cLogS>
-0.966

>  <H-Acceptors>
7

>  <H-Donors>
0

>  <Total Surface Area>
178.24

>  <MMFF94 Energy>
21.781

$$$$
Compound 87
Actelion Java MolfileCreator 1.0

 27 29  0  0  1  0  0  0  0  0999 V2000
   -0.9020   -4.3514    2.8720 Cl  0  0  0  0  0  0  0  0  0  0  0  0
   -0.5925   -2.8911    2.0151 C   0  0  0  0  0  0  0  0  0  0  0  0
   -0.5540   -2.9055    0.6241 C   0  0  0  0  0  0  0  0  0  0  0  0
   -0.3805   -1.7010    2.7350 C   0  0  0  0  0  0  0  0  0  0  0  0
   -0.2991   -1.7029   -0.0075 C   0  0  0  0  0  0  0  0  0  0  0  0
   -0.1253   -0.4949    2.0699 C   0  0  0  0  0  0  0  0  0  0  0  0
   -0.2005   -1.4380   -1.4450 C   0  0  0  0  0  0  0  0  0  0  0  0
   -0.0865   -0.5071    0.6828 C   0  0  0  0  0  0  0  0  0  0  0  0
   -0.3554   -2.2757   -2.3110 O   0  0  0  0  0  0  0  0  0  0  0  0
    0.0974   -0.0938   -1.5866 N   0  0  0  0  0  0  0  0  0  0  0  0
    0.1556    0.6155   -0.3026 C   0  0  0  0  0  0  0  0  0  0  0  0
    0.1346    0.5706   -2.8730 C   0  0  0  0  0  0  0  0  0  0  0  0
   -0.9099    1.7071   -0.1645 C   0  0  0  0  0  0  0  0  0  0  0  0
    1.4738    1.3500   -0.0492 C   0  0  0  0  0  0  0  0  0  0  0  0
   -2.1004    1.6214   -0.4200 O   0  0  0  0  0  0  0  0  0  0  0  0
   -0.3079    2.8204    0.3312 N   0  0  0  0  0  0  0  0  0  0  0  0
    1.0316    2.6840    0.4801 C   0  0  0  0  0  0  0  0  0  0  0  0
    1.7705    3.5325    0.9509 O   0  0  0  0  0  0  0  0  0  0  0  0
   -0.7160   -3.8120    0.0509 H   0  0  0  0  0  0  0  0  0  0  0  0
   -0.4177   -1.7147    3.8229 H   0  0  0  0  0  0  0  0  0  0  0  0
    0.0310    0.4149    2.6426 H   0  0  0  0  0  0  0  0  0  0  0  0
   -0.7332    1.2297   -2.9600 H   0  0  0  0  0  0  0  0  0  0  0  0
    0.1019   -0.1623   -3.6837 H   0  0  0  0  0  0  0  0  0  0  0  0
    1.0521    1.1567   -2.9574 H   0  0  0  0  0  0  0  0  0  0  0  0
    2.1177    0.8565    0.6856 H   0  0  0  0  0  0  0  0  0  0  0  0
    2.0506    1.5246   -0.9623 H   0  0  0  0  0  0  0  0  0  0  0  0
   -0.8101    3.6636    0.5637 H   0  0  0  0  0  0  0  0  0  0  0  0
  1  2  1  0  0  0  0
  2  3  2  0  0  0  0
  2  4  1  0  0  0  0
  3  5  1  0  0  0  0
  4  6  2  0  0  0  0
  5  7  1  0  0  0  0
  5  8  2  0  0  0  0
  7  9  2  0  0  0  0
  7 10  1  0  0  0  0
  8 11  1  0  0  0  0
 10 12  1  0  0  0  0
 11 13  1  0  0  0  0
 11 14  1  0  0  0  0
 13 15  2  0  0  0  0
 13 16  1  0  0  0  0
 14 17  1  0  0  0  0
 17 18  2  0  0  0  0
  6  8  1  0  0  0  0
 10 11  1  0  0  0  0
 16 17  1  0  0  0  0
  3 19  1  0  0  0  0
  4 20  1  0  0  0  0
  6 21  1  0  0  0  0
 12 22  1  0  0  0  0
 12 23  1  0  0  0  0
 12 24  1  0  0  0  0
 14 25  1  0  0  0  0
 14 26  1  0  0  0  0
 16 27  1  0  0  0  0
M  END
>  <Column 1>
CN1C(=O)c2cc(Cl)ccc2[C@@]12CC(=O)NC2=O ZINC000000012729

>  <Total Molweight>
264.667

>  <cLogP>
0.607

>  <cLogS>
-2.282

>  <H-Acceptors>
5

>  <H-Donors>
1

>  <Total Surface Area>
173.12

>  <MMFF94 Energy>
-8.6653

$$$$
Compound 88
Actelion Java MolfileCreator 1.0

 22 23  0  0  0  0  0  0  0  0999 V2000
    0.2395    0.5588    2.9564 O   0  0  0  0  0  0  0  0  0  0  0  0
   -0.0264    0.1830    1.8210 C   0  0  0  0  0  0  0  0  0  0  0  0
   -0.3405    1.0795    0.8264 N   0  0  0  0  0  0  0  0  0  0  0  0
   -0.0298   -1.2365    1.4090 C   0  0  0  0  0  0  0  0  0  0  0  0
   -0.6251    0.7170   -0.4655 C   0  0  0  0  0  0  0  0  0  0  0  0
    0.2632   -2.2011    2.3232 N   0  0  0  0  0  0  0  0  0  0  0  0
   -0.3364   -1.4987    0.0753 C   0  0  0  0  0  0  0  0  0  0  0  0
   -0.6395   -0.5093   -0.8716 N   0  0  0  0  0  0  0  0  0  0  0  0
   -0.9584    1.8675   -1.4020 C   0  0  0  0  0  0  0  0  0  0  0  0
    0.2330   -3.4592    1.8327 C   0  0  0  0  0  0  0  0  0  0  0  0
   -0.3604   -2.7659   -0.3970 N   0  0  0  0  0  0  0  0  0  0  0  0
   -0.1901    3.0271   -1.0965 O   0  0  0  0  0  0  0  0  0  0  0  0
   -0.0711   -3.7341    0.5065 C   0  0  0  0  0  0  0  0  0  0  0  0
    1.0889    3.0005   -1.7222 C   0  0  0  0  0  0  0  0  0  0  0  0
   -0.3241    2.0638    1.0705 H   0  0  0  0  0  0  0  0  0  0  0  0
   -2.0115    2.1207   -1.2389 H   0  0  0  0  0  0  0  0  0  0  0  0
   -0.8414    1.5664   -2.4488 H   0  0  0  0  0  0  0  0  0  0  0  0
    0.4614   -4.2513    2.5376 H   0  0  0  0  0  0  0  0  0  0  0  0
   -0.0905   -4.7513    0.1303 H   0  0  0  0  0  0  0  0  0  0  0  0
    1.6327    3.9018   -1.4270 H   0  0  0  0  0  0  0  0  0  0  0  0
    0.9804    3.0004   -2.8110 H   0  0  0  0  0  0  0  0  0  0  0  0
    1.6614    2.1260   -1.3994 H   0  0  0  0  0  0  0  0  0  0  0  0
  1  2  2  0  0  0  0
  2  3  1  0  0  0  0
  2  4  1  0  0  0  0
  3  5  1  0  0  0  0
  4  6  2  0  0  0  0
  4  7  1  0  0  0  0
  5  8  2  0  0  0  0
  5  9  1  0  0  0  0
  6 10  1  0  0  0  0
  7 11  2  0  0  0  0
  9 12  1  0  0  0  0
 10 13  2  0  0  0  0
 12 14  1  0  0  0  0
  7  8  1  0  0  0  0
 11 13  1  0  0  0  0
  3 15  1  0  0  0  0
  9 16  1  0  0  0  0
  9 17  1  0  0  0  0
 10 18  1  0  0  0  0
 13 19  1  0  0  0  0
 14 20  1  0  0  0  0
 14 21  1  0  0  0  0
 14 22  1  0  0  0  0
M  END
>  <Column 1>
COCc1nc2nccnc2c(=O)[nH]1 ZINC000000012984

>  <Total Molweight>
192.178

>  <cLogP>
-1.3062

>  <cLogS>
-0.615

>  <H-Acceptors>
6

>  <H-Donors>
1

>  <Total Surface Area>
145.48

>  <MMFF94 Energy>
77.044

$$$$
Compound 89
Actelion Java MolfileCreator 1.0

 33 34  0  0  0  0  0  0  0  0999 V2000
    1.8554    3.3900   -1.2097 S   0  0  0  0  0  0  0  0  0  0  0  0
    1.1192    4.2496   -2.1115 O   0  0  0  0  0  0  0  0  0  0  0  0
    2.8469    3.9252   -0.3020 O   0  0  0  0  0  0  0  0  0  0  0  0
    0.7374    2.5233   -0.2991 N   0  0  0  0  0  0  0  0  0  0  0  0
    2.6413    2.1205   -2.1847 C   0  0  0  0  0  0  0  0  0  0  0  0
    1.2425    1.6207    0.7744 C   0  0  0  0  0  0  0  0  0  0  0  0
   -0.4981    2.0613   -0.9872 C   0  0  0  0  0  0  0  0  0  0  0  0
    0.8393    0.1524    0.5505 C   0  0  0  0  0  0  0  0  0  0  0  0
   -1.3697    1.1709   -0.0811 C   0  0  0  0  0  0  0  0  0  0  0  0
   -0.6144    0.0104    0.3976 N   0  0  0  0  0  0  0  0  0  0  0  0
   -1.1754   -1.2292    0.6251 C   0  0  0  0  0  0  0  0  0  0  0  0
   -0.3445   -2.2847    0.7288 N   0  0  0  0  0  0  0  0  0  0  0  0
   -2.5390   -1.4101    0.7578 C   0  0  0  0  0  0  0  0  0  0  0  0
   -0.8749   -3.5049    0.9399 C   0  0  0  0  0  0  0  0  0  0  0  0
   -2.9913   -2.6909    0.9846 C   0  0  0  0  0  0  0  0  0  0  0  0
   -2.1847   -3.7566    1.0795 N   0  0  0  0  0  0  0  0  0  0  0  0
    0.0717   -4.6555    1.0761 C   0  0  0  0  0  0  0  0  0  0  0  0
    3.1177    1.3980   -1.5207 H   0  0  0  0  0  0  0  0  0  0  0  0
    3.4006    2.6024   -2.8051 H   0  0  0  0  0  0  0  0  0  0  0  0
    1.8994    1.6409   -2.8241 H   0  0  0  0  0  0  0  0  0  0  0  0
    0.8272    1.9802    1.7240 H   0  0  0  0  0  0  0  0  0  0  0  0
    2.3319    1.6805    0.8637 H   0  0  0  0  0  0  0  0  0  0  0  0
   -0.2275    1.4963   -1.8860 H   0  0  0  0  0  0  0  0  0  0  0  0
   -1.0861    2.9344   -1.2900 H   0  0  0  0  0  0  0  0  0  0  0  0
    1.3348   -0.2340   -0.3485 H   0  0  0  0  0  0  0  0  0  0  0  0
    1.2032   -0.4207    1.4125 H   0  0  0  0  0  0  0  0  0  0  0  0
   -2.2407    0.8658   -0.6721 H   0  0  0  0  0  0  0  0  0  0  0  0
   -1.7295    1.7452    0.7809 H   0  0  0  0  0  0  0  0  0  0  0  0
   -3.2449   -0.5937    0.7140 H   0  0  0  0  0  0  0  0  0  0  0  0
   -4.0507   -2.8969    1.1050 H   0  0  0  0  0  0  0  0  0  0  0  0
   -0.3978   -5.5832    0.7352 H   0  0  0  0  0  0  0  0  0  0  0  0
    0.9715   -4.4869    0.4768 H   0  0  0  0  0  0  0  0  0  0  0  0
    0.3623   -4.7711    2.1242 H   0  0  0  0  0  0  0  0  0  0  0  0
  1  2  2  0  0  0  0
  1  3  2  0  0  0  0
  1  4  1  0  0  0  0
  1  5  1  0  0  0  0
  4  6  1  0  0  0  0
  4  7  1  0  0  0  0
  6  8  1  0  0  0  0
  7  9  1  0  0  0  0
  8 10  1  0  0  0  0
 10 11  1  0  0  0  0
 11 12  2  0  0  0  0
 11 13  1  0  0  0  0
 12 14  1  0  0  0  0
 13 15  2  0  0  0  0
 14 16  2  0  0  0  0
 14 17  1  0  0  0  0
  9 10  1  0  0  0  0
 15 16  1  0  0  0  0
  5 18  1  0  0  0  0
  5 19  1  0  0  0  0
  5 20  1  0  0  0  0
  6 21  1  0  0  0  0
  6 22  1  0  0  0  0
  7 23  1  0  0  0  0
  7 24  1  0  0  0  0
  8 25  1  0  0  0  0
  8 26  1  0  0  0  0
  9 27  1  0  0  0  0
  9 28  1  0  0  0  0
 13 29  1  0  0  0  0
 15 30  1  0  0  0  0
 17 31  1  0  0  0  0
 17 32  1  0  0  0  0
 17 33  1  0  0  0  0
M  END
>  <Column 1>
Cc1nccc(N2CCN(S(C)(=O)=O)CC2)n1 ZINC000000013140

>  <Total Molweight>
256.329

>  <cLogP>
0.0782

>  <cLogS>
-1.072

>  <H-Acceptors>
6

>  <H-Donors>
0

>  <Total Surface Area>
186.02

>  <MMFF94 Energy>
-31.108

$$$$
Compound 90
Actelion Java MolfileCreator 1.0

 38 39  0  0  0  0  0  0  0  0999 V2000
   -1.9265   -1.2840    2.4085 S   0  0  0  0  0  0  0  0  0  0  0  0
   -1.1827   -1.8503    3.5113 O   0  0  0  0  0  0  0  0  0  0  0  0
   -3.2954   -0.8531    2.5670 O   0  0  0  0  0  0  0  0  0  0  0  0
   -1.0185   -0.0027    1.8185 N   0  0  0  0  0  0  0  0  0  0  0  0
   -1.8412   -2.3585    1.1005 N   0  0  0  0  0  0  0  0  0  0  0  0
   -1.6220    0.8600    0.7592 C   0  0  0  0  0  0  0  0  0  0  0  0
    0.4276   -0.2806    1.5585 C   0  0  0  0  0  0  0  0  0  0  0  0
   -2.9517   -2.2826    0.1293 C   0  0  0  0  0  0  0  0  0  0  0  0
   -1.5257   -3.7540    1.4688 C   0  0  0  0  0  0  0  0  0  0  0  0
   -0.8238    2.1746    0.6307 C   0  0  0  0  0  0  0  0  0  0  0  0
    1.2112    1.0440    1.4219 C   0  0  0  0  0  0  0  0  0  0  0  0
    0.6047    1.8969    0.3832 N   0  0  0  0  0  0  0  0  0  0  0  0
    1.0031    1.7321   -0.9388 C   0  0  0  0  0  0  0  0  0  0  0  0
    0.0610    1.6117   -1.8912 N   0  0  0  0  0  0  0  0  0  0  0  0
    2.3464    1.7208   -1.2775 C   0  0  0  0  0  0  0  0  0  0  0  0
    0.4803    1.4581   -3.1560 C   0  0  0  0  0  0  0  0  0  0  0  0
    2.6805    1.5569   -2.6104 C   0  0  0  0  0  0  0  0  0  0  0  0
    1.7513    1.4139   -3.5707 N   0  0  0  0  0  0  0  0  0  0  0  0
    4.1186    1.5469   -3.0322 C   0  0  0  0  0  0  0  0  0  0  0  0
   -2.6556    1.1097    1.0181 H   0  0  0  0  0  0  0  0  0  0  0  0
   -1.6167    0.3248   -0.1951 H   0  0  0  0  0  0  0  0  0  0  0  0
    0.8627   -0.8482    2.3870 H   0  0  0  0  0  0  0  0  0  0  0  0
    0.5272   -0.8721    0.6411 H   0  0  0  0  0  0  0  0  0  0  0  0
   -3.8371   -2.8011    0.5106 H   0  0  0  0  0  0  0  0  0  0  0  0
   -3.2211   -1.2515   -0.1070 H   0  0  0  0  0  0  0  0  0  0  0  0
   -2.6459   -2.7559   -0.8095 H   0  0  0  0  0  0  0  0  0  0  0  0
   -2.2887   -4.1647    2.1371 H   0  0  0  0  0  0  0  0  0  0  0  0
   -0.5423   -3.8104    1.9449 H   0  0  0  0  0  0  0  0  0  0  0  0
   -1.4803   -4.3797    0.5712 H   0  0  0  0  0  0  0  0  0  0  0  0
   -0.9018    2.7293    1.5750 H   0  0  0  0  0  0  0  0  0  0  0  0
   -1.2583    2.8249   -0.1381 H   0  0  0  0  0  0  0  0  0  0  0  0
    2.2693    0.8329    1.2370 H   0  0  0  0  0  0  0  0  0  0  0  0
    1.1669    1.5844    2.3763 H   0  0  0  0  0  0  0  0  0  0  0  0
    3.1177    1.8685   -0.5333 H   0  0  0  0  0  0  0  0  0  0  0  0
   -0.2865    1.3595   -3.9163 H   0  0  0  0  0  0  0  0  0  0  0  0
    4.5920    2.5021   -2.7844 H   0  0  0  0  0  0  0  0  0  0  0  0
    4.6554    0.7375   -2.5278 H   0  0  0  0  0  0  0  0  0  0  0  0
    4.2073    1.3925   -4.1125 H   0  0  0  0  0  0  0  0  0  0  0  0
  1  2  2  0  0  0  0
  1  3  2  0  0  0  0
  1  4  1  0  0  0  0
  1  5  1  0  0  0  0
  4  6  1  0  0  0  0
  4  7  1  0  0  0  0
  5  8  1  0  0  0  0
  5  9  1  0  0  0  0
  6 10  1  0  0  0  0
  7 11  1  0  0  0  0
 10 12  1  0  0  0  0
 12 13  1  0  0  0  0
 13 14  2  0  0  0  0
 13 15  1  0  0  0  0
 14 16  1  0  0  0  0
 15 17  2  0  0  0  0
 16 18  2  0  0  0  0
 17 19  1  0  0  0  0
 11 12  1  0  0  0  0
 17 18  1  0  0  0  0
  6 20  1  0  0  0  0
  6 21  1  0  0  0  0
  7 22  1  0  0  0  0
  7 23  1  0  0  0  0
  8 24  1  0  0  0  0
  8 25  1  0  0  0  0
  8 26  1  0  0  0  0
  9 27  1  0  0  0  0
  9 28  1  0  0  0  0
  9 29  1  0  0  0  0
 10 30  1  0  0  0  0
 10 31  1  0  0  0  0
 11 32  1  0  0  0  0
 11 33  1  0  0  0  0
 15 34  1  0  0  0  0
 16 35  1  0  0  0  0
 19 36  1  0  0  0  0
 19 37  1  0  0  0  0
 19 38  1  0  0  0  0
M  END
>  <Column 1>
Cc1cc(N2CCN(S(=O)(=O)N(C)C)CC2)ncn1 ZINC000000013146

>  <Total Molweight>
285.371

>  <cLogP>
0.1004

>  <cLogS>
-0.845

>  <H-Acceptors>
7

>  <H-Donors>
0

>  <Total Surface Area>
208.58

>  <MMFF94 Energy>
-145.78

$$$$
Compound 91
Actelion Java MolfileCreator 1.0

 33 34  0  0  0  0  0  0  0  0999 V2000
    2.9895   -0.5651   -2.5851 S   0  0  0  0  0  0  0  0  0  0  0  0
    2.5815    0.6514   -3.2530 O   0  0  0  0  0  0  0  0  0  0  0  0
    4.2732   -0.6662   -1.9242 O   0  0  0  0  0  0  0  0  0  0  0  0
    1.7912   -0.9520   -1.4433 N   0  0  0  0  0  0  0  0  0  0  0  0
    2.8597   -1.9283   -3.7246 C   0  0  0  0  0  0  0  0  0  0  0  0
    0.3699   -0.8096   -1.9122 C   0  0  0  0  0  0  0  0  0  0  0  0
    2.0324   -0.3194   -0.1030 C   0  0  0  0  0  0  0  0  0  0  0  0
   -0.3738    0.3627   -1.2477 C   0  0  0  0  0  0  0  0  0  0  0  0
    0.8055   -0.4128    0.8227 C   0  0  0  0  0  0  0  0  0  0  0  0
   -0.3730    0.2090    0.2134 N   0  0  0  0  0  0  0  0  0  0  0  0
   -1.4040    0.7650    0.9424 C   0  0  0  0  0  0  0  0  0  0  0  0
   -2.2674    1.5725    0.3005 N   0  0  0  0  0  0  0  0  0  0  0  0
   -1.5768    0.5061    2.2925 C   0  0  0  0  0  0  0  0  0  0  0  0
   -3.2648    2.1151    1.0144 C   0  0  0  0  0  0  0  0  0  0  0  0
   -2.6401    1.1083    2.9456 C   0  0  0  0  0  0  0  0  0  0  0  0
   -3.5005    1.9256    2.3168 N   0  0  0  0  0  0  0  0  0  0  0  0
   -2.8697    0.8555    4.4052 C   0  0  0  0  0  0  0  0  0  0  0  0
    3.0160   -2.8602   -3.1781 H   0  0  0  0  0  0  0  0  0  0  0  0
    3.6411   -1.8074   -4.4783 H   0  0  0  0  0  0  0  0  0  0  0  0
    1.8817   -1.9136   -4.2065 H   0  0  0  0  0  0  0  0  0  0  0  0
    0.3198   -0.6965   -2.9996 H   0  0  0  0  0  0  0  0  0  0  0  0
   -0.1376   -1.7533   -1.6756 H   0  0  0  0  0  0  0  0  0  0  0  0
    2.8743   -0.8296    0.3778 H   0  0  0  0  0  0  0  0  0  0  0  0
    2.2984    0.7365   -0.2395 H   0  0  0  0  0  0  0  0  0  0  0  0
   -1.3939    0.3645   -1.6506 H   0  0  0  0  0  0  0  0  0  0  0  0
    0.0979    1.3158   -1.5155 H   0  0  0  0  0  0  0  0  0  0  0  0
    1.0714    0.0842    1.7631 H   0  0  0  0  0  0  0  0  0  0  0  0
    0.5823   -1.4634    1.0431 H   0  0  0  0  0  0  0  0  0  0  0  0
   -0.9206   -0.1589    2.8364 H   0  0  0  0  0  0  0  0  0  0  0  0
   -3.9456    2.7699    0.4823 H   0  0  0  0  0  0  0  0  0  0  0  0
   -3.0467   -0.2100    4.5811 H   0  0  0  0  0  0  0  0  0  0  0  0
   -1.9997    1.1768    4.9862 H   0  0  0  0  0  0  0  0  0  0  0  0
   -3.7427    1.4099    4.7648 H   0  0  0  0  0  0  0  0  0  0  0  0
  1  2  2  0  0  0  0
  1  3  2  0  0  0  0
  1  4  1  0  0  0  0
  1  5  1  0  0  0  0
  4  6  1  0  0  0  0
  4  7  1  0  0  0  0
  6  8  1  0  0  0  0
  7  9  1  0  0  0  0
  8 10  1  0  0  0  0
 10 11  1  0  0  0  0
 11 12  2  0  0  0  0
 11 13  1  0  0  0  0
 12 14  1  0  0  0  0
 13 15  2  0  0  0  0
 14 16  2  0  0  0  0
 15 17  1  0  0  0  0
  9 10  1  0  0  0  0
 15 16  1  0  0  0  0
  5 18  1  0  0  0  0
  5 19  1  0  0  0  0
  5 20  1  0  0  0  0
  6 21  1  0  0  0  0
  6 22  1  0  0  0  0
  7 23  1  0  0  0  0
  7 24  1  0  0  0  0
  8 25  1  0  0  0  0
  8 26  1  0  0  0  0
  9 27  1  0  0  0  0
  9 28  1  0  0  0  0
 13 29  1  0  0  0  0
 14 30  1  0  0  0  0
 17 31  1  0  0  0  0
 17 32  1  0  0  0  0
 17 33  1  0  0  0  0
M  END
>  <Column 1>
Cc1cc(N2CCN(S(C)(=O)=O)CC2)ncn1 ZINC000000013147

>  <Total Molweight>
256.329

>  <cLogP>
0.2427

>  <cLogS>
-1.812

>  <H-Acceptors>
6

>  <H-Donors>
0

>  <Total Surface Area>
186.02

>  <MMFF94 Energy>
-30.242

$$$$
Compound 92
Actelion Java MolfileCreator 1.0

 16 16  0  0  0  0  0  0  0  0999 V2000
   -2.0504   -0.9459   -1.8926 O   0  0  0  0  0  0  0  0  0  0  0  0
   -1.3642   -0.6005   -0.9399 C   0  0  0  0  0  0  0  0  0  0  0  0
   -1.8505    0.1814    0.0583 N   0  0  0  0  0  0  0  0  0  0  0  0
   -0.0930   -1.0413   -0.7883 N   0  0  0  0  0  0  0  0  0  0  0  0
   -1.2481    0.4374    1.2650 C   0  0  0  0  0  0  0  0  0  0  0  0
    0.8701   -0.4556    0.1206 C   0  0  0  0  0  0  0  0  0  0  0  0
   -1.8399    0.9770    2.1894 O   0  0  0  0  0  0  0  0  0  0  0  0
    0.2121    0.0155    1.3991 C   0  0  0  0  0  0  0  0  0  0  0  0
    1.6093    0.7037   -0.5343 C   0  0  0  0  0  0  0  0  0  0  0  0
    0.8257    0.2106    2.4410 O   0  0  0  0  0  0  0  0  0  0  0  0
   -2.8106    0.4794   -0.0369 H   0  0  0  0  0  0  0  0  0  0  0  0
    0.2277   -1.6649   -1.5215 H   0  0  0  0  0  0  0  0  0  0  0  0
    1.5741   -1.2546    0.3773 H   0  0  0  0  0  0  0  0  0  0  0  0
    2.3630    1.1206    0.1423 H   0  0  0  0  0  0  0  0  0  0  0  0
    2.1146    0.3758   -1.4490 H   0  0  0  0  0  0  0  0  0  0  0  0
    0.9240    1.5149   -0.8061 H   0  0  0  0  0  0  0  0  0  0  0  0
  1  2  2  0  0  0  0
  2  3  1  0  0  0  0
  2  4  1  0  0  0  0
  3  5  1  0  0  0  0
  4  6  1  0  0  0  0
  5  7  2  0  0  0  0
  5  8  1  0  0  0  0
  6  9  1  0  0  0  0
  8 10  2  0  0  0  0
  6  8  1  0  0  0  0
  3 11  1  0  0  0  0
  4 12  1  0  0  0  0
  6 13  1  0  0  0  0
  9 14  1  0  0  0  0
  9 15  1  0  0  0  0
  9 16  1  0  0  0  0
M  END
>  <Column 1>
CC1NC(=O)NC(=O)C1=O ZINC000000013352

>  <Total Molweight>
142.114

>  <cLogP>
-1.1574

>  <cLogS>
-1.058

>  <H-Acceptors>
5

>  <H-Donors>
2

>  <Total Surface Area>
100.93

>  <MMFF94 Energy>
-56.247

$$$$
Compound 93
Actelion Java MolfileCreator 1.0

 32 34  0  0  0  0  0  0  0  0999 V2000
    2.4588    0.8719   -0.0792 N   0  0  0  0  0  0  0  0  0  0  0  0
    3.4193    0.0201    0.2998 N   0  0  0  0  0  0  0  0  0  0  0  0
    1.3215    0.1879    0.0890 C   0  0  0  0  0  0  0  0  0  0  0  0
    2.9709   -1.2177    0.6617 C   0  0  0  0  0  0  0  0  0  0  0  0
    0.0851    0.7009   -0.1602 N   0  0  0  0  0  0  0  0  0  0  0  0
    1.5888   -1.1544    0.5173 C   0  0  0  0  0  0  0  0  0  0  0  0
    3.6524   -2.3647    1.0828 C   0  0  0  0  0  0  0  0  0  0  0  0
   -0.9758    0.6135    0.8526 C   0  0  0  0  0  0  0  0  0  0  0  0
   -0.0241    1.8931   -1.0170 C   0  0  0  0  0  0  0  0  0  0  0  0
    0.8396   -2.3227    0.7715 C   0  0  0  0  0  0  0  0  0  0  0  0
    2.8833   -3.5009    1.3507 C   0  0  0  0  0  0  0  0  0  0  0  0
   -2.3697    0.7319    0.1963 C   0  0  0  0  0  0  0  0  0  0  0  0
   -1.4394    1.9993   -1.6296 C   0  0  0  0  0  0  0  0  0  0  0  0
    1.4986   -3.4851    1.1927 C   0  0  0  0  0  0  0  0  0  0  0  0
   -2.5166    1.9603   -0.6143 N   0  0  0  0  0  0  0  0  0  0  0  0
   -3.8292    2.0051   -1.2535 C   0  0  0  0  0  0  0  0  0  0  0  0
    4.3785    0.3429    0.2741 H   0  0  0  0  0  0  0  0  0  0  0  0
    4.7318   -2.3818    1.1905 H   0  0  0  0  0  0  0  0  0  0  0  0
   -0.9401   -0.3236    1.4150 H   0  0  0  0  0  0  0  0  0  0  0  0
   -0.8436    1.4239    1.5817 H   0  0  0  0  0  0  0  0  0  0  0  0
    0.1949    2.7931   -0.4280 H   0  0  0  0  0  0  0  0  0  0  0  0
    0.6964    1.8485   -1.8435 H   0  0  0  0  0  0  0  0  0  0  0  0
   -0.2357   -2.3311    0.6279 H   0  0  0  0  0  0  0  0  0  0  0  0
    3.3750   -4.4148    1.6768 H   0  0  0  0  0  0  0  0  0  0  0  0
   -3.1241    0.7292    0.9924 H   0  0  0  0  0  0  0  0  0  0  0  0
   -2.5445   -0.1568   -0.4254 H   0  0  0  0  0  0  0  0  0  0  0  0
   -1.5003    2.9402   -2.1897 H   0  0  0  0  0  0  0  0  0  0  0  0
   -1.5722    1.1803   -2.3498 H   0  0  0  0  0  0  0  0  0  0  0  0
    0.9221   -4.3855    1.3910 H   0  0  0  0  0  0  0  0  0  0  0  0
   -4.6231    2.0050   -0.4985 H   0  0  0  0  0  0  0  0  0  0  0  0
   -3.9433    2.9296   -1.8303 H   0  0  0  0  0  0  0  0  0  0  0  0
   -3.9946    1.1564   -1.9270 H   0  0  0  0  0  0  0  0  0  0  0  0
  1  2  1  0  0  0  0
  1  3  2  0  0  0  0
  2  4  1  0  0  0  0
  3  5  1  0  0  0  0
  3  6  1  0  0  0  0
  4  7  1  0  0  0  0
  5  8  1  0  0  0  0
  5  9  1  0  0  0  0
  6 10  1  0  0  0  0
  7 11  2  0  0  0  0
  8 12  1  0  0  0  0
  9 13  1  0  0  0  0
 10 14  2  0  0  0  0
 12 15  1  0  0  0  0
 15 16  1  0  0  0  0
  4  6  2  0  0  0  0
 11 14  1  0  0  0  0
 13 15  1  0  0  0  0
  2 17  1  0  0  0  0
  7 18  1  0  0  0  0
  8 19  1  0  0  0  0
  8 20  1  0  0  0  0
  9 21  1  0  0  0  0
  9 22  1  0  0  0  0
 10 23  1  0  0  0  0
 11 24  1  0  0  0  0
 12 25  1  0  0  0  0
 12 26  1  0  0  0  0
 13 27  1  0  0  0  0
 13 28  1  0  0  0  0
 14 29  1  0  0  0  0
 16 30  1  0  0  0  0
 16 31  1  0  0  0  0
 16 32  1  0  0  0  0
M  END
>  <Column 1>
CN1CCN(c2n[nH]c3ccccc23)CC1 ZINC000000013498

>  <Total Molweight>
216.287

>  <cLogP>
0.9999

>  <cLogS>
-1.82

>  <H-Acceptors>
4

>  <H-Donors>
1

>  <Total Surface Area>
170.59

>  <MMFF94 Energy>
71.632

$$$$
Compound 94
Actelion Java MolfileCreator 1.0

 18 19  0  0  0  0  0  0  0  0999 V2000
   -1.9737    1.0687    1.2332 S   0  0  0  0  0  0  0  0  0  0  0  0
   -1.2779    0.3274   -0.1000 C   0  0  0  0  0  0  0  0  0  0  0  0
   -0.4750    0.9945    2.0773 C   0  0  0  0  0  0  0  0  0  0  0  0
   -2.0319    0.0847   -1.2081 N   0  0  0  0  0  0  0  0  0  0  0  0
    0.0435    0.0185    0.0501 C   0  0  0  0  0  0  0  0  0  0  0  0
    0.5387    0.4049    1.3319 C   0  0  0  0  0  0  0  0  0  0  0  0
   -1.4375   -0.5277   -2.2959 C   0  0  0  0  0  0  0  0  0  0  0  0
    0.7181   -0.5939   -0.9829 N   0  0  0  0  0  0  0  0  0  0  0  0
    1.9371    0.2096    1.8116 C   0  0  0  0  0  0  0  0  0  0  0  0
   -2.0668   -0.7702   -3.3181 O   0  0  0  0  0  0  0  0  0  0  0  0
    0.0793   -0.9024   -2.1729 C   0  0  0  0  0  0  0  0  0  0  0  0
    0.6754   -1.4468   -3.0937 O   0  0  0  0  0  0  0  0  0  0  0  0
   -0.4142    1.3896    3.0831 H   0  0  0  0  0  0  0  0  0  0  0  0
   -3.0079    0.3398   -1.2531 H   0  0  0  0  0  0  0  0  0  0  0  0
    1.6956   -0.8338   -0.8999 H   0  0  0  0  0  0  0  0  0  0  0  0
    2.6404    0.7375    1.1596 H   0  0  0  0  0  0  0  0  0  0  0  0
    2.0680    0.5901    2.8299 H   0  0  0  0  0  0  0  0  0  0  0  0
    2.1941   -0.8546    1.8120 H   0  0  0  0  0  0  0  0  0  0  0  0
  1  2  1  0  0  0  0
  1  3  1  0  0  0  0
  2  4  1  0  0  0  0
  2  5  2  0  0  0  0
  3  6  2  0  0  0  0
  4  7  1  0  0  0  0
  5  8  1  0  0  0  0
  6  9  1  0  0  0  0
  7 10  2  0  0  0  0
  7 11  1  0  0  0  0
 11 12  2  0  0  0  0
  5  6  1  0  0  0  0
  8 11  1  0  0  0  0
  3 13  1  0  0  0  0
  4 14  1  0  0  0  0
  8 15  1  0  0  0  0
  9 16  1  0  0  0  0
  9 17  1  0  0  0  0
  9 18  1  0  0  0  0
M  END
>  <Column 1>
Cc1csc2[nH]c(=O)c(=O)[nH]c12 ZINC000000015867

>  <Total Molweight>
182.203

>  <cLogP>
-0.2767

>  <cLogS>
-2.24

>  <H-Acceptors>
4

>  <H-Donors>
2

>  <Total Surface Area>
126.38

>  <MMFF94 Energy>
40.271

$$$$
Compound 95
Actelion Java MolfileCreator 1.0

 17 17  0  0  0  0  0  0  0  0999 V2000
    2.7358   -2.0317    2.5010 O   0  0  0  0  0  0  0  0  0  0  0  0
    1.9340   -1.4493    1.7797 C   0  0  0  0  0  0  0  0  0  0  0  0
    0.6302   -1.8383    1.6672 N   0  0  0  0  0  0  0  0  0  0  0  0
    2.2899   -0.3612    1.0311 N   0  0  0  0  0  0  0  0  0  0  0  0
   -0.3179   -1.2344    0.8816 C   0  0  0  0  0  0  0  0  0  0  0  0
    1.4226    0.3141    0.2150 C   0  0  0  0  0  0  0  0  0  0  0  0
   -1.4713   -1.6530    0.8412 O   0  0  0  0  0  0  0  0  0  0  0  0
    0.1395   -0.0519    0.0908 C   0  0  0  0  0  0  0  0  0  0  0  0
   -0.7502    0.6591   -0.7609 C   0  0  0  0  0  0  0  0  0  0  0  0
   -1.5016    1.2598   -1.4804 C   0  0  0  0  0  0  0  0  0  0  0  0
   -2.4290    1.9806   -2.3521 C   0  0  0  0  0  0  0  0  0  0  0  0
    0.3392   -2.6375    2.2076 H   0  0  0  0  0  0  0  0  0  0  0  0
    3.2575   -0.0683    1.1114 H   0  0  0  0  0  0  0  0  0  0  0  0
    1.8375    1.1613   -0.3233 H   0  0  0  0  0  0  0  0  0  0  0  0
   -2.0833    1.9596   -3.3900 H   0  0  0  0  0  0  0  0  0  0  0  0
   -2.5179    3.0271   -2.0450 H   0  0  0  0  0  0  0  0  0  0  0  0
   -3.4257    1.5305   -2.3169 H   0  0  0  0  0  0  0  0  0  0  0  0
  1  2  2  0  0  0  0
  2  3  1  0  0  0  0
  2  4  1  0  0  0  0
  3  5  1  0  0  0  0
  4  6  1  0  0  0  0
  5  7  2  0  0  0  0
  5  8  1  0  0  0  0
  8  9  1  0  0  0  0
  9 10  3  0  0  0  0
 10 11  1  0  0  0  0
  6  8  2  0  0  0  0
  3 12  1  0  0  0  0
  4 13  1  0  0  0  0
  6 14  1  0  0  0  0
 11 15  1  0  0  0  0
 11 16  1  0  0  0  0
 11 17  1  0  0  0  0
M  END
>  <Column 1>
CC#Cc1c[nH]c(=O)[nH]c1=O ZINC000000016355

>  <Total Molweight>
150.137

>  <cLogP>
-0.06

>  <cLogS>
-3.562

>  <H-Acceptors>
4

>  <H-Donors>
2

>  <Total Surface Area>
125.19

>  <MMFF94 Energy>
-70.648

$$$$
Compound 96
Actelion Java MolfileCreator 1.0

 16 16  0  0  0  0  0  0  0  0999 V2000
    2.2504    1.9287    1.1247 Cl  0  0  0  0  0  0  0  0  0  0  0  0
    0.7978    1.7283    0.2023 C   0  0  0  0  0  0  0  0  0  0  0  0
    0.2449    0.3938    0.1298 C   0  0  0  0  0  0  0  0  0  0  0  0
    0.2256    2.8003   -0.3618 C   0  0  0  0  0  0  0  0  0  0  0  0
    0.9714   -0.6797   -0.6160 C   0  0  0  0  0  0  0  0  0  0  0  0
   -0.9174    0.0564    0.7101 C   0  0  0  0  0  0  0  0  0  0  0  0
    2.0133   -0.4707   -1.2297 O   0  0  0  0  0  0  0  0  0  0  0  0
    0.3947   -1.9226   -0.6029 N   0  0  0  0  0  0  0  0  0  0  0  0
   -1.4181   -1.2147    0.6403 N   0  0  0  0  0  0  0  0  0  0  0  0
   -0.7903   -2.2423   -0.0068 C   0  0  0  0  0  0  0  0  0  0  0  0
   -1.2670   -3.3705   -0.0490 O   0  0  0  0  0  0  0  0  0  0  0  0
    0.6694    3.7873   -0.2726 H   0  0  0  0  0  0  0  0  0  0  0  0
   -0.6873    2.7219   -0.9430 H   0  0  0  0  0  0  0  0  0  0  0  0
   -1.5143    0.7690    1.2725 H   0  0  0  0  0  0  0  0  0  0  0  0
    0.8752   -2.6582   -1.0962 H   0  0  0  0  0  0  0  0  0  0  0  0
   -2.2971   -1.4501    1.0885 H   0  0  0  0  0  0  0  0  0  0  0  0
  1  2  1  0  0  0  0
  2  3  1  0  0  0  0
  2  4  2  0  0  0  0
  3  5  1  0  0  0  0
  3  6  2  0  0  0  0
  5  7  2  0  0  0  0
  5  8  1  0  0  0  0
  6  9  1  0  0  0  0
  8 10  1  0  0  0  0
 10 11  2  0  0  0  0
  9 10  1  0  0  0  0
  4 12  1  0  0  0  0
  4 13  1  0  0  0  0
  6 14  1  0  0  0  0
  8 15  1  0  0  0  0
  9 16  1  0  0  0  0
M  END
>  <Column 1>
C=C(Cl)c1c[nH]c(=O)[nH]c1=O ZINC000000016358

>  <Total Molweight>
172.571

>  <cLogP>
0.1295

>  <cLogS>
-2.276

>  <H-Acceptors>
4

>  <H-Donors>
2

>  <Total Surface Area>
121.3

>  <MMFF94 Energy>
-72.393

$$$$
Compound 97
Actelion Java MolfileCreator 1.0

 30 31  0  0  0  0  0  0  0  0999 V2000
    0.3160   -1.6599   -2.2137 F   0  0  0  0  0  0  0  0  0  0  0  0
   -0.4243   -0.6399   -1.7441 C   0  0  0  0  0  0  0  0  0  0  0  0
   -0.4689   -0.3464   -0.3789 C   0  0  0  0  0  0  0  0  0  0  0  0
   -1.1933    0.0843   -2.6527 C   0  0  0  0  0  0  0  0  0  0  0  0
   -1.2842    0.6355    0.0731 N   0  0  0  0  0  0  0  0  0  0  0  0
    0.2750   -1.0491    0.5613 N   0  0  0  0  0  0  0  0  0  0  0  0
   -1.9984    1.1154   -2.1697 N   0  0  0  0  0  0  0  0  0  0  0  0
   -1.1332   -0.1525   -4.0372 N   0  0  0  0  0  0  0  0  0  0  0  0
   -2.0321    1.3664   -0.7905 C   0  0  0  0  0  0  0  0  0  0  0  0
    1.6777   -1.3827    0.3035 C   0  0  0  0  0  0  0  0  0  0  0  0
   -0.0663   -0.8965    1.9787 C   0  0  0  0  0  0  0  0  0  0  0  0
   -2.7161    1.8123   -2.9924 O   0  0  0  0  0  0  0  0  0  0  0  0
   -2.8357    2.3704   -0.2871 N   0  0  0  0  0  0  0  0  0  0  0  0
    2.5750   -0.2867    0.8866 C   0  0  0  0  0  0  0  0  0  0  0  0
    0.7881    0.2061    2.6062 C   0  0  0  0  0  0  0  0  0  0  0  0
    2.2774   -0.0512    2.3689 C   0  0  0  0  0  0  0  0  0  0  0  0
   -0.9885   -1.0984   -4.3644 H   0  0  0  0  0  0  0  0  0  0  0  0
   -1.7587    0.4600   -4.5643 H   0  0  0  0  0  0  0  0  0  0  0  0
    1.9079   -2.3385    0.7910 H   0  0  0  0  0  0  0  0  0  0  0  0
    1.9156   -1.5163   -0.7542 H   0  0  0  0  0  0  0  0  0  0  0  0
    0.1429   -1.8452    2.4898 H   0  0  0  0  0  0  0  0  0  0  0  0
   -1.1342   -0.7054    2.1385 H   0  0  0  0  0  0  0  0  0  0  0  0
   -2.8528    2.5484    0.7022 H   0  0  0  0  0  0  0  0  0  0  0  0
   -3.3761    2.8950   -0.9659 H   0  0  0  0  0  0  0  0  0  0  0  0
    3.6274   -0.5642    0.7614 H   0  0  0  0  0  0  0  0  0  0  0  0
    2.4193    0.6487    0.3347 H   0  0  0  0  0  0  0  0  0  0  0  0
    0.5186    1.1792    2.1784 H   0  0  0  0  0  0  0  0  0  0  0  0
    0.5896    0.2620    3.6823 H   0  0  0  0  0  0  0  0  0  0  0  0
    2.8645    0.7979    2.7360 H   0  0  0  0  0  0  0  0  0  0  0  0
    2.5899   -0.9306    2.9453 H   0  0  0  0  0  0  0  0  0  0  0  0
  1  2  1  0  0  0  0
  2  3  2  0  0  0  0
  2  4  1  0  0  0  0
  3  5  1  0  0  0  0
  3  6  1  0  0  0  0
  4  7  2  0  0  0  0
  4  8  1  0  0  0  0
  5  9  2  0  0  0  0
  6 10  1  0  0  0  0
  6 11  1  0  0  0  0
  7 12  1  0  0  0  0
  9 13  1  0  0  0  0
 10 14  1  0  0  0  0
 11 15  1  0  0  0  0
 14 16  1  0  0  0  0
  7  9  1  0  0  0  0
 15 16  1  0  0  0  0
  8 17  1  0  0  0  0
  8 18  1  0  0  0  0
 10 19  1  0  0  0  0
 10 20  1  0  0  0  0
 11 21  1  0  0  0  0
 11 22  1  0  0  0  0
 13 23  1  0  0  0  0
 13 24  1  0  0  0  0
 14 25  1  0  0  0  0
 14 26  1  0  0  0  0
 15 27  1  0  0  0  0
 15 28  1  0  0  0  0
 16 29  1  0  0  0  0
 16 30  1  0  0  0  0
M  CHG  2   7   1  12  -1
M  END
>  <Column 1>
Nc1nc(N2CCCCC2)c(F)c(N)[n+]1[O-] ZINC000000016415

>  <Total Molweight>
227.242

>  <cLogP>
0.2724

>  <cLogS>
-5.775

>  <H-Acceptors>
5

>  <H-Donors>
2

>  <Total Surface Area>
163.06

>  <MMFF94 Energy>
92.268

$$$$
Compound 98
Actelion Java MolfileCreator 1.0

 31 32  0  0  1  0  0  0  0  0999 V2000
   -0.3954   -1.1867    2.5329 O   0  0  0  0  0  0  0  0  0  0  0  0
   -0.6724   -0.3911    1.4487 C   0  0  0  0  0  0  0  0  0  0  0  0
    0.1902   -2.3633    1.9255 C   0  0  0  0  0  0  0  0  0  0  0  0
   -0.0629   -0.8089    0.2719 C   0  0  0  0  0  0  0  0  0  0  0  0
   -1.4929    0.7182    1.5109 C   0  0  0  0  0  0  0  0  0  0  0  0
    0.8085   -1.9833    0.5604 C   0  0  0  0  0  0  0  0  0  0  0  0
   -0.3094   -0.1447   -0.9199 C   0  0  0  0  0  0  0  0  0  0  0  0
   -1.7315    1.4148    0.3279 C   0  0  0  0  0  0  0  0  0  0  0  0
    2.2336   -1.6392    0.7236 N   0  0  0  0  0  0  0  0  0  0  0  0
    0.2781   -0.6606   -2.0384 O   0  0  0  0  0  0  0  0  0  0  0  0
   -1.1490    0.9757   -0.8787 C   0  0  0  0  0  0  0  0  0  0  0  0
   -2.5209    2.5280    0.2011 O   0  0  0  0  0  0  0  0  0  0  0  0
    2.7777   -1.5230   -0.6253 O   0  0  0  0  0  0  0  0  0  0  0  0
    0.0984    0.0567   -3.2521 C   0  0  0  0  0  0  0  0  0  0  0  0
   -3.1046    3.0366    1.3946 C   0  0  0  0  0  0  0  0  0  0  0  0
    3.4160   -0.2536   -0.7415 C   0  0  0  0  0  0  0  0  0  0  0  0
   -0.6130   -3.1014    1.7935 H   0  0  0  0  0  0  0  0  0  0  0  0
    0.9191   -2.7993    2.6181 H   0  0  0  0  0  0  0  0  0  0  0  0
   -1.9266    0.9971    2.4620 H   0  0  0  0  0  0  0  0  0  0  0  0
    0.6765   -2.8081   -0.1487 H   0  0  0  0  0  0  0  0  0  0  0  0
    2.7346   -2.4598    1.0634 H   0  0  0  0  0  0  0  0  0  0  0  0
   -1.3795    1.5405   -1.7767 H   0  0  0  0  0  0  0  0  0  0  0  0
   -0.9545    0.0652   -3.5524 H   0  0  0  0  0  0  0  0  0  0  0  0
    0.6625   -0.4620   -4.0330 H   0  0  0  0  0  0  0  0  0  0  0  0
    0.4970    1.0737   -3.1741 H   0  0  0  0  0  0  0  0  0  0  0  0
   -3.7987    2.3123    1.8334 H   0  0  0  0  0  0  0  0  0  0  0  0
   -3.6791    3.9299    1.1309 H   0  0  0  0  0  0  0  0  0  0  0  0
   -2.3359    3.3358    2.1148 H   0  0  0  0  0  0  0  0  0  0  0  0
    2.7116    0.5596   -0.5406 H   0  0  0  0  0  0  0  0  0  0  0  0
    4.2669   -0.1937   -0.0556 H   0  0  0  0  0  0  0  0  0  0  0  0
    3.7847   -0.1494   -1.7654 H   0  0  0  0  0  0  0  0  0  0  0  0
  1  2  1  0  0  0  0
  1  3  1  0  0  0  0
  2  4  2  0  0  0  0
  2  5  1  0  0  0  0
  3  6  1  0  0  0  0
  4  7  1  0  0  0  0
  5  8  2  0  0  0  0
  6  9  1  0  0  0  0
  7 10  1  0  0  0  0
  7 11  2  0  0  0  0
  8 12  1  0  0  0  0
  9 13  1  0  0  0  0
 10 14  1  0  0  0  0
 12 15  1  0  0  0  0
 13 16  1  0  0  0  0
  4  6  1  0  0  0  0
  8 11  1  0  0  0  0
  3 17  1  0  0  0  0
  3 18  1  0  0  0  0
  5 19  1  0  0  0  0
  6 20  1  0  0  0  0
  9 21  1  0  0  0  0
 11 22  1  0  0  0  0
 14 23  1  0  0  0  0
 14 24  1  0  0  0  0
 14 25  1  0  0  0  0
 15 26  1  0  0  0  0
 15 27  1  0  0  0  0
 15 28  1  0  0  0  0
 16 29  1  0  0  0  0
 16 30  1  0  0  0  0
 16 31  1  0  0  0  0
M  END
>  <Column 1>
CON[C@H]1COc2cc(OC)cc(OC)c21 ZINC000000017230

>  <Total Molweight>
225.243

>  <cLogP>
0.7083

>  <cLogS>
-1.75

>  <H-Acceptors>
5

>  <H-Donors>
1

>  <Total Surface Area>
174.26

>  <MMFF94 Energy>
61.28

$$$$
Compound 99
Actelion Java MolfileCreator 1.0

 38 40  0  0  0  0  0  0  0  0999 V2000
    0.6414   -4.8181   -0.5612 O   0  0  0  0  0  0  0  0  0  0  0  0
    1.5948   -4.1934   -0.0788 N   0  0  0  0  0  0  0  0  0  0  0  0
    2.7117   -4.6607    0.1783 O   0  0  0  0  0  0  0  0  0  0  0  0
    1.3767   -2.7886    0.2424 C   0  0  0  0  0  0  0  0  0  0  0  0
    0.9595   -1.8681   -0.7488 C   0  0  0  0  0  0  0  0  0  0  0  0
    1.5932   -2.4171    1.5743 C   0  0  0  0  0  0  0  0  0  0  0  0
    0.6626   -0.5351   -0.3459 C   0  0  0  0  0  0  0  0  0  0  0  0
    0.8204   -2.2892   -2.1930 C   0  0  0  0  0  0  0  0  0  0  0  0
    1.3611   -1.1015    1.9454 C   0  0  0  0  0  0  0  0  0  0  0  0
    0.8901   -0.1713    1.0074 C   0  0  0  0  0  0  0  0  0  0  0  0
    0.2015    0.5032   -1.3721 C   0  0  0  0  0  0  0  0  0  0  0  0
    1.5996   -0.7140    3.2671 N   0  0  0  0  0  0  0  0  0  0  0  0
    0.6323    1.1361    1.4404 N   0  0  0  0  0  0  0  0  0  0  0  0
   -0.8033    1.4501   -0.8667 N   0  0  0  0  0  0  0  0  0  0  0  0
    1.3895    0.5652    3.7336 C   0  0  0  0  0  0  0  0  0  0  0  0
    0.8230    1.5884    2.7236 C   0  0  0  0  0  0  0  0  0  0  0  0
   -2.1254    0.8374   -0.6824 C   0  0  0  0  0  0  0  0  0  0  0  0
   -1.0400    2.5521   -1.8053 C   0  0  0  0  0  0  0  0  0  0  0  0
    1.6333    0.8719    4.8928 O   0  0  0  0  0  0  0  0  0  0  0  0
    0.5529    2.7327    3.0622 O   0  0  0  0  0  0  0  0  0  0  0  0
   -3.0414    2.0444   -0.5457 C   0  0  0  0  0  0  0  0  0  0  0  0
   -2.3310    3.1698   -1.2900 C   0  0  0  0  0  0  0  0  0  0  0  0
    1.9365   -3.1487    2.3021 H   0  0  0  0  0  0  0  0  0  0  0  0
    1.2137   -1.5178   -2.8631 H   0  0  0  0  0  0  0  0  0  0  0  0
   -0.2309   -2.4799   -2.4290 H   0  0  0  0  0  0  0  0  0  0  0  0
    1.4019   -3.1853   -2.4280 H   0  0  0  0  0  0  0  0  0  0  0  0
   -0.1949    0.0238   -2.2731 H   0  0  0  0  0  0  0  0  0  0  0  0
    1.1028    1.0543   -1.6716 H   0  0  0  0  0  0  0  0  0  0  0  0
    1.9610   -1.3678    3.9491 H   0  0  0  0  0  0  0  0  0  0  0  0
    0.1877    1.7819    0.7884 H   0  0  0  0  0  0  0  0  0  0  0  0
   -2.1734    0.2001    0.2060 H   0  0  0  0  0  0  0  0  0  0  0  0
   -2.4233    0.2432   -1.5557 H   0  0  0  0  0  0  0  0  0  0  0  0
   -0.2192    3.2761   -1.8042 H   0  0  0  0  0  0  0  0  0  0  0  0
   -1.1850    2.1877   -2.8304 H   0  0  0  0  0  0  0  0  0  0  0  0
   -3.1675    2.3193    0.5082 H   0  0  0  0  0  0  0  0  0  0  0  0
   -4.0340    1.8451   -0.9620 H   0  0  0  0  0  0  0  0  0  0  0  0
   -2.1201    3.9953   -0.6001 H   0  0  0  0  0  0  0  0  0  0  0  0
   -2.9419    3.5637   -2.1086 H   0  0  0  0  0  0  0  0  0  0  0  0
  1  2  2  0  0  0  0
  2  3  1  0  0  0  0
  2  4  1  0  0  0  0
  4  5  2  0  0  0  0
  4  6  1  0  0  0  0
  5  7  1  0  0  0  0
  5  8  1  0  0  0  0
  6  9  2  0  0  0  0
  7 10  2  0  0  0  0
  7 11  1  0  0  0  0
  9 12  1  0  0  0  0
 10 13  1  0  0  0  0
 11 14  1  0  0  0  0
 12 15  1  0  0  0  0
 13 16  1  0  0  0  0
 14 17  1  0  0  0  0
 14 18  1  0  0  0  0
 15 19  2  0  0  0  0
 16 20  2  0  0  0  0
 17 21  1  0  0  0  0
 18 22  1  0  0  0  0
  9 10  1  0  0  0  0
 15 16  1  0  0  0  0
 21 22  1  0  0  0  0
  6 23  1  0  0  0  0
  8 24  1  0  0  0  0
  8 25  1  0  0  0  0
  8 26  1  0  0  0  0
 11 27  1  0  0  0  0
 11 28  1  0  0  0  0
 12 29  1  0  0  0  0
 13 30  1  0  0  0  0
 17 31  1  0  0  0  0
 17 32  1  0  0  0  0
 18 33  1  0  0  0  0
 18 34  1  0  0  0  0
 21 35  1  0  0  0  0
 21 36  1  0  0  0  0
 22 37  1  0  0  0  0
 22 38  1  0  0  0  0
M  CHG  2   2   1   3  -1
M  END
>  <Column 1>
Cc1c([N+](=O)[O-])cc2[nH]c(=O)c(=O)[nH]c2c1CN1CCCC1 ZINC000000017349

>  <Total Molweight>
304.305

>  <cLogP>
-0.7584

>  <cLogS>
-2.85

>  <H-Acceptors>
7

>  <H-Donors>
2

>  <Total Surface Area>
219.71

>  <MMFF94 Energy>
95.773

$$$$
Compound 100
Actelion Java MolfileCreator 1.0

 23 25  0  0  0  0  0  0  0  0999 V2000
    0.7945   -1.3509    0.6355 N   0  0  0  0  0  0  0  0  0  0  0  0
    0.1730   -0.3549    1.2058 C   0  0  0  0  0  0  0  0  0  0  0  0
    0.5052   -1.1870   -0.7122 C   0  0  0  0  0  0  0  0  0  0  0  0
    0.0217    0.1598    2.4405 N   0  0  0  0  0  0  0  0  0  0  0  0
   -0.4736    0.4292    0.3022 N   0  0  0  0  0  0  0  0  0  0  0  0
   -0.2942   -0.0571   -0.9427 C   0  0  0  0  0  0  0  0  0  0  0  0
    0.9024   -1.9687   -1.8074 C   0  0  0  0  0  0  0  0  0  0  0  0
    0.9102   -0.2689    3.4196 N   0  0  0  0  0  0  0  0  0  0  0  0
   -0.5998    1.4842    2.3637 C   0  0  0  0  0  0  0  0  0  0  0  0
   -1.1180    1.5740    0.9096 C   0  0  0  0  0  0  0  0  0  0  0  0
   -0.7179    0.3393   -2.2120 C   0  0  0  0  0  0  0  0  0  0  0  0
    0.4872   -1.5921   -3.0915 C   0  0  0  0  0  0  0  0  0  0  0  0
   -0.3074   -0.4587   -3.2863 C   0  0  0  0  0  0  0  0  0  0  0  0
    1.5203   -2.8458   -1.6516 H   0  0  0  0  0  0  0  0  0  0  0  0
    1.8713   -0.1134    3.0998 H   0  0  0  0  0  0  0  0  0  0  0  0
    0.8480   -1.2911    3.4873 H   0  0  0  0  0  0  0  0  0  0  0  0
    0.1426    2.2693    2.5508 H   0  0  0  0  0  0  0  0  0  0  0  0
   -1.4140    1.5915    3.0877 H   0  0  0  0  0  0  0  0  0  0  0  0
   -2.1998    1.4292    0.8428 H   0  0  0  0  0  0  0  0  0  0  0  0
   -0.8035    2.4877    0.4002 H   0  0  0  0  0  0  0  0  0  0  0  0
   -1.3355    1.2170   -2.3656 H   0  0  0  0  0  0  0  0  0  0  0  0
    0.7896   -2.1921   -3.9466 H   0  0  0  0  0  0  0  0  0  0  0  0
   -0.6143   -0.1912   -4.2957 H   0  0  0  0  0  0  0  0  0  0  0  0
  1  2  2  0  0  0  0
  1  3  1  0  0  0  0
  2  4  1  0  0  0  0
  2  5  1  0  0  0  0
  3  6  2  0  0  0  0
  3  7  1  0  0  0  0
  4  8  1  0  0  0  0
  4  9  1  0  0  0  0
  5 10  1  0  0  0  0
  6 11  1  0  0  0  0
  7 12  2  0  0  0  0
 11 13  2  0  0  0  0
  5  6  1  0  0  0  0
  9 10  1  0  0  0  0
 12 13  1  0  0  0  0
  7 14  1  0  0  0  0
  8 15  1  0  0  0  0
  8 16  1  0  0  0  0
  9 17  1  0  0  0  0
  9 18  1  0  0  0  0
 10 19  1  0  0  0  0
 10 20  1  0  0  0  0
 11 21  1  0  0  0  0
 12 22  1  0  0  0  0
 13 23  1  0  0  0  0
M  END
>  <Column 1>
NN1CCn2c1nc1ccccc12 ZINC000000017481

>  <Total Molweight>
174.206

>  <cLogP>
1.0881

>  <cLogS>
-1.236

>  <H-Acceptors>
4

>  <H-Donors>
1

>  <Total Surface Area>
128.66

>  <MMFF94 Energy>
48.555

$$$$
Compound 101
Actelion Java MolfileCreator 1.0

 37 39  0  0  0  0  0  0  0  0999 V2000
   -1.5134    1.3540    3.5873 O   0  0  0  0  0  0  0  0  0  0  0  0
   -0.4756    1.5300    2.9434 C   0  0  0  0  0  0  0  0  0  0  0  0
   -0.3726    1.0233    1.6444 N   0  0  0  0  0  0  0  0  0  0  0  0
    0.6371    2.2645    3.5304 C   0  0  0  0  0  0  0  0  0  0  0  0
   -1.4346    0.1421    1.1517 C   0  0  0  0  0  0  0  0  0  0  0  0
    0.6922    1.3531    0.6881 C   0  0  0  0  0  0  0  0  0  0  0  0
    1.9050    2.1883    3.0156 O   0  0  0  0  0  0  0  0  0  0  0  0
    0.6646    3.0617    4.6635 C   0  0  0  0  0  0  0  0  0  0  0  0
   -0.9374   -0.8841    0.1198 C   0  0  0  0  0  0  0  0  0  0  0  0
    0.3066    1.1120   -0.7846 C   0  0  0  0  0  0  0  0  0  0  0  0
    2.7127    2.9466    3.7992 C   0  0  0  0  0  0  0  0  0  0  0  0
    1.9968    3.5079    4.8279 C   0  0  0  0  0  0  0  0  0  0  0  0
   -0.2298   -0.2299   -0.9757 N   0  0  0  0  0  0  0  0  0  0  0  0
   -0.1086   -0.8610   -2.1880 C   0  0  0  0  0  0  0  0  0  0  0  0
   -0.5505   -2.1218   -2.3049 N   0  0  0  0  0  0  0  0  0  0  0  0
    0.4479   -0.1918   -3.2124 N   0  0  0  0  0  0  0  0  0  0  0  0
   -0.4184   -2.7149   -3.5037 C   0  0  0  0  0  0  0  0  0  0  0  0
    0.5576   -0.8266   -4.3938 C   0  0  0  0  0  0  0  0  0  0  0  0
   -0.8557   -4.0142   -3.6834 O   0  0  0  0  0  0  0  0  0  0  0  0
    0.1344   -2.1100   -4.6008 C   0  0  0  0  0  0  0  0  0  0  0  0
   -1.4108   -4.5850   -2.5026 C   0  0  0  0  0  0  0  0  0  0  0  0
   -1.9110   -0.3825    1.9871 H   0  0  0  0  0  0  0  0  0  0  0  0
   -2.1936    0.7914    0.6977 H   0  0  0  0  0  0  0  0  0  0  0  0
    1.5519    0.7226    0.9446 H   0  0  0  0  0  0  0  0  0  0  0  0
    0.9795    2.4024    0.8077 H   0  0  0  0  0  0  0  0  0  0  0  0
   -0.1899    3.2818    5.2898 H   0  0  0  0  0  0  0  0  0  0  0  0
   -0.2609   -1.5969    0.6068 H   0  0  0  0  0  0  0  0  0  0  0  0
   -1.8119   -1.4392   -0.2409 H   0  0  0  0  0  0  0  0  0  0  0  0
    1.2045    1.2872   -1.3893 H   0  0  0  0  0  0  0  0  0  0  0  0
   -0.4503    1.8440   -1.0918 H   0  0  0  0  0  0  0  0  0  0  0  0
    3.7522    2.9819    3.5037 H   0  0  0  0  0  0  0  0  0  0  0  0
    2.3879    4.1496    5.6050 H   0  0  0  0  0  0  0  0  0  0  0  0
    1.0120   -0.2472   -5.1913 H   0  0  0  0  0  0  0  0  0  0  0  0
    0.2274   -2.6100   -5.5528 H   0  0  0  0  0  0  0  0  0  0  0  0
   -1.7233   -5.6061   -2.7415 H   0  0  0  0  0  0  0  0  0  0  0  0
   -0.6655   -4.6438   -1.7017 H   0  0  0  0  0  0  0  0  0  0  0  0
   -2.2988   -4.0333   -2.1745 H   0  0  0  0  0  0  0  0  0  0  0  0
  1  2  2  0  0  0  0
  2  3  1  0  0  0  0
  2  4  1  0  0  0  0
  3  5  1  0  0  0  0
  3  6  1  0  0  0  0
  4  7  1  0  0  0  0
  4  8  2  0  0  0  0
  5  9  1  0  0  0  0
  6 10  1  0  0  0  0
  7 11  1  0  0  0  0
  8 12  1  0  0  0  0
  9 13  1  0  0  0  0
 13 14  1  0  0  0  0
 14 15  2  0  0  0  0
 14 16  1  0  0  0  0
 15 17  1  0  0  0  0
 16 18  2  0  0  0  0
 17 19  1  0  0  0  0
 17 20  2  0  0  0  0
 19 21  1  0  0  0  0
 10 13  1  0  0  0  0
 11 12  2  0  0  0  0
 18 20  1  0  0  0  0
  5 22  1  0  0  0  0
  5 23  1  0  0  0  0
  6 24  1  0  0  0  0
  6 25  1  0  0  0  0
  8 26  1  0  0  0  0
  9 27  1  0  0  0  0
  9 28  1  0  0  0  0
 10 29  1  0  0  0  0
 10 30  1  0  0  0  0
 11 31  1  0  0  0  0
 12 32  1  0  0  0  0
 18 33  1  0  0  0  0
 20 34  1  0  0  0  0
 21 35  1  0  0  0  0
 21 36  1  0  0  0  0
 21 37  1  0  0  0  0
M  END
>  <Column 1>
COc1ccnc(N2CCN(C(=O)c3ccco3)CC2)n1 ZINC000000017599

>  <Total Molweight>
288.306

>  <cLogP>
1.2149

>  <cLogS>
-2.165

>  <H-Acceptors>
7

>  <H-Donors>
0

>  <Total Surface Area>
222.38

>  <MMFF94 Energy>
-33.148

$$$$
Compound 102
Actelion Java MolfileCreator 1.0

 39 41  0  0  0  0  0  0  0  0999 V2000
    1.1940    2.5485    3.0269 O   0  0  0  0  0  0  0  0  0  0  0  0
    0.3120    1.8310    2.5466 C   0  0  0  0  0  0  0  0  0  0  0  0
    0.4825    1.2059    1.3089 N   0  0  0  0  0  0  0  0  0  0  0  0
   -0.9520    1.6488    3.3419 C   0  0  0  0  0  0  0  0  0  0  0  0
   -0.4001    0.1720    0.7520 C   0  0  0  0  0  0  0  0  0  0  0  0
    1.6576    1.5552    0.5071 C   0  0  0  0  0  0  0  0  0  0  0  0
   -2.0896    1.2945    2.6878 N   0  0  0  0  0  0  0  0  0  0  0  0
   -0.9179    1.9042    4.7110 C   0  0  0  0  0  0  0  0  0  0  0  0
    0.2813   -0.7261   -0.2993 C   0  0  0  0  0  0  0  0  0  0  0  0
    1.4266    1.4034   -1.0061 C   0  0  0  0  0  0  0  0  0  0  0  0
   -3.2135    1.1824    3.4289 C   0  0  0  0  0  0  0  0  0  0  0  0
   -2.0933    1.7749    5.4460 C   0  0  0  0  0  0  0  0  0  0  0  0
    0.9345    0.0682   -1.3328 N   0  0  0  0  0  0  0  0  0  0  0  0
   -3.2644    1.4067    4.7950 C   0  0  0  0  0  0  0  0  0  0  0  0
    1.1062   -0.4371   -2.5963 C   0  0  0  0  0  0  0  0  0  0  0  0
    0.7373   -1.7031   -2.8416 N   0  0  0  0  0  0  0  0  0  0  0  0
    1.6391    0.3564   -3.5417 N   0  0  0  0  0  0  0  0  0  0  0  0
    0.9185   -2.1692   -4.0892 C   0  0  0  0  0  0  0  0  0  0  0  0
    1.8001   -0.1541   -4.7761 C   0  0  0  0  0  0  0  0  0  0  0  0
    0.5569   -3.4670   -4.4009 O   0  0  0  0  0  0  0  0  0  0  0  0
    1.4517   -1.4323   -5.1129 C   0  0  0  0  0  0  0  0  0  0  0  0
    0.0179   -4.1779   -3.2909 C   0  0  0  0  0  0  0  0  0  0  0  0
   -0.7800   -0.4609    1.5598 H   0  0  0  0  0  0  0  0  0  0  0  0
   -1.2441    0.6946    0.2863 H   0  0  0  0  0  0  0  0  0  0  0  0
    2.4651    0.8864    0.8302 H   0  0  0  0  0  0  0  0  0  0  0  0
    1.9741    2.5802    0.7296 H   0  0  0  0  0  0  0  0  0  0  0  0
    0.0062    2.2037    5.1961 H   0  0  0  0  0  0  0  0  0  0  0  0
    1.0324   -1.3589    0.1891 H   0  0  0  0  0  0  0  0  0  0  0  0
   -0.4904   -1.3852   -0.7152 H   0  0  0  0  0  0  0  0  0  0  0  0
    2.3790    1.6155   -1.5069 H   0  0  0  0  0  0  0  0  0  0  0  0
    0.6936    2.1465   -1.3432 H   0  0  0  0  0  0  0  0  0  0  0  0
   -4.1060    0.8998    2.8770 H   0  0  0  0  0  0  0  0  0  0  0  0
   -2.0941    1.9679    6.5153 H   0  0  0  0  0  0  0  0  0  0  0  0
   -4.1974    1.3029    5.3385 H   0  0  0  0  0  0  0  0  0  0  0  0
    2.2325    0.5238   -5.5052 H   0  0  0  0  0  0  0  0  0  0  0  0
    1.5854   -1.8321   -6.1064 H   0  0  0  0  0  0  0  0  0  0  0  0
   -0.2341   -5.1866   -3.6322 H   0  0  0  0  0  0  0  0  0  0  0  0
    0.7540   -4.2735   -2.4851 H   0  0  0  0  0  0  0  0  0  0  0  0
   -0.9039   -3.7093   -2.9288 H   0  0  0  0  0  0  0  0  0  0  0  0
  1  2  2  0  0  0  0
  2  3  1  0  0  0  0
  2  4  1  0  0  0  0
  3  5  1  0  0  0  0
  3  6  1  0  0  0  0
  4  7  2  0  0  0  0
  4  8  1  0  0  0  0
  5  9  1  0  0  0  0
  6 10  1  0  0  0  0
  7 11  1  0  0  0  0
  8 12  2  0  0  0  0
  9 13  1  0  0  0  0
 11 14  2  0  0  0  0
 13 15  1  0  0  0  0
 15 16  2  0  0  0  0
 15 17  1  0  0  0  0
 16 18  1  0  0  0  0
 17 19  2  0  0  0  0
 18 20  1  0  0  0  0
 18 21  2  0  0  0  0
 20 22  1  0  0  0  0
 10 13  1  0  0  0  0
 12 14  1  0  0  0  0
 19 21  1  0  0  0  0
  5 23  1  0  0  0  0
  5 24  1  0  0  0  0
  6 25  1  0  0  0  0
  6 26  1  0  0  0  0
  8 27  1  0  0  0  0
  9 28  1  0  0  0  0
  9 29  1  0  0  0  0
 10 30  1  0  0  0  0
 10 31  1  0  0  0  0
 11 32  1  0  0  0  0
 12 33  1  0  0  0  0
 14 34  1  0  0  0  0
 19 35  1  0  0  0  0
 21 36  1  0  0  0  0
 22 37  1  0  0  0  0
 22 38  1  0  0  0  0
 22 39  1  0  0  0  0
M  END
>  <Column 1>
COc1ccnc(N2CCN(C(=O)c3ccccn3)CC2)n1 ZINC000000017602

>  <Total Molweight>
299.333

>  <cLogP>
1.0793

>  <cLogS>
-1.712

>  <H-Acceptors>
7

>  <H-Donors>
0

>  <Total Surface Area>
231.45

>  <MMFF94 Energy>
9.9451

$$$$
Compound 103
Actelion Java MolfileCreator 1.0

 36 38  0  0  0  0  0  0  0  0999 V2000
   -0.4860    4.0555    4.3805 S   0  0  0  0  0  0  0  0  0  0  0  0
   -0.2414    2.7533    3.2748 C   0  0  0  0  0  0  0  0  0  0  0  0
    1.1467    3.9335    4.8812 C   0  0  0  0  0  0  0  0  0  0  0  0
    0.9798    2.2463    3.2777 N   0  0  0  0  0  0  0  0  0  0  0  0
   -1.3667    2.2797    2.4512 C   0  0  0  0  0  0  0  0  0  0  0  0
    1.7687    2.9182    4.1905 C   0  0  0  0  0  0  0  0  0  0  0  0
   -2.5293    2.6397    2.6680 O   0  0  0  0  0  0  0  0  0  0  0  0
   -1.1216    1.3883    1.3934 N   0  0  0  0  0  0  0  0  0  0  0  0
   -2.2628    0.7926    0.6928 C   0  0  0  0  0  0  0  0  0  0  0  0
    0.2109    1.0125    0.9011 C   0  0  0  0  0  0  0  0  0  0  0  0
   -1.9798   -0.6321    0.1862 C   0  0  0  0  0  0  0  0  0  0  0  0
    0.2084    0.4036   -0.5149 C   0  0  0  0  0  0  0  0  0  0  0  0
   -0.7686   -0.6720   -0.6268 N   0  0  0  0  0  0  0  0  0  0  0  0
   -0.5765   -1.6998   -1.5157 C   0  0  0  0  0  0  0  0  0  0  0  0
    0.4881   -1.6597   -2.3301 N   0  0  0  0  0  0  0  0  0  0  0  0
   -1.4653   -2.7083   -1.5360 N   0  0  0  0  0  0  0  0  0  0  0  0
    0.6483   -2.6816   -3.1887 C   0  0  0  0  0  0  0  0  0  0  0  0
   -1.2625   -3.7094   -2.4121 C   0  0  0  0  0  0  0  0  0  0  0  0
    1.7278   -2.6949   -4.0528 O   0  0  0  0  0  0  0  0  0  0  0  0
   -0.2049   -3.7492   -3.2773 C   0  0  0  0  0  0  0  0  0  0  0  0
    2.5712   -1.5562   -3.9105 C   0  0  0  0  0  0  0  0  0  0  0  0
    1.5587    4.5873    5.6364 H   0  0  0  0  0  0  0  0  0  0  0  0
    2.8036    2.6228    4.3160 H   0  0  0  0  0  0  0  0  0  0  0  0
   -3.1461    0.7784    1.3404 H   0  0  0  0  0  0  0  0  0  0  0  0
   -2.4881    1.4530   -0.1539 H   0  0  0  0  0  0  0  0  0  0  0  0
    0.6144    0.2797    1.6100 H   0  0  0  0  0  0  0  0  0  0  0  0
    0.8599    1.8937    0.8979 H   0  0  0  0  0  0  0  0  0  0  0  0
   -1.8591   -1.3085    1.0413 H   0  0  0  0  0  0  0  0  0  0  0  0
   -2.8577   -0.9591   -0.3845 H   0  0  0  0  0  0  0  0  0  0  0  0
    1.2284    0.0587   -0.7236 H   0  0  0  0  0  0  0  0  0  0  0  0
   -0.0358    1.1812   -1.2492 H   0  0  0  0  0  0  0  0  0  0  0  0
   -2.0046   -4.5014   -2.3912 H   0  0  0  0  0  0  0  0  0  0  0  0
   -0.0516   -4.5572   -3.9765 H   0  0  0  0  0  0  0  0  0  0  0  0
    3.3894   -1.6558   -4.6303 H   0  0  0  0  0  0  0  0  0  0  0  0
    2.0326   -0.6312   -4.1447 H   0  0  0  0  0  0  0  0  0  0  0  0
    3.0129   -1.5119   -2.9087 H   0  0  0  0  0  0  0  0  0  0  0  0
  1  2  1  0  0  0  0
  1  3  1  0  0  0  0
  2  4  2  0  0  0  0
  2  5  1  0  0  0  0
  3  6  2  0  0  0  0
  5  7  2  0  0  0  0
  5  8  1  0  0  0  0
  8  9  1  0  0  0  0
  8 10  1  0  0  0  0
  9 11  1  0  0  0  0
 10 12  1  0  0  0  0
 11 13  1  0  0  0  0
 13 14  1  0  0  0  0
 14 15  2  0  0  0  0
 14 16  1  0  0  0  0
 15 17  1  0  0  0  0
 16 18  2  0  0  0  0
 17 19  1  0  0  0  0
 17 20  2  0  0  0  0
 19 21  1  0  0  0  0
  4  6  1  0  0  0  0
 12 13  1  0  0  0  0
 18 20  1  0  0  0  0
  3 22  1  0  0  0  0
  6 23  1  0  0  0  0
  9 24  1  0  0  0  0
  9 25  1  0  0  0  0
 10 26  1  0  0  0  0
 10 27  1  0  0  0  0
 11 28  1  0  0  0  0
 11 29  1  0  0  0  0
 12 30  1  0  0  0  0
 12 31  1  0  0  0  0
 18 32  1  0  0  0  0
 20 33  1  0  0  0  0
 21 34  1  0  0  0  0
 21 35  1  0  0  0  0
 21 36  1  0  0  0  0
M  END
>  <Column 1>
COc1ccnc(N2CCN(C(=O)c3nccs3)CC2)n1 ZINC000000017605

>  <Total Molweight>
305.361

>  <cLogP>
0.8563

>  <cLogS>
-1.513

>  <H-Acceptors>
7

>  <H-Donors>
0

>  <Total Surface Area>
227.39

>  <MMFF94 Energy>
-8.985

$$$$
Compound 104
Actelion Java MolfileCreator 1.0

 28 29  0  0  0  0  0  0  0  0999 V2000
    0.6404   -4.8912   -1.2812 Cl  0  0  0  0  0  0  0  0  0  0  0  0
    1.0351   -3.2569   -1.6248 C   0  0  0  0  0  0  0  0  0  0  0  0
    0.4800   -2.3596   -0.7854 N   0  0  0  0  0  0  0  0  0  0  0  0
    1.8596   -2.9389   -2.6838 C   0  0  0  0  0  0  0  0  0  0  0  0
    0.7298   -1.0480   -0.9887 C   0  0  0  0  0  0  0  0  0  0  0  0
    2.1373   -1.5983   -2.8868 C   0  0  0  0  0  0  0  0  0  0  0  0
    0.1668   -0.1179   -0.1196 N   0  0  0  0  0  0  0  0  0  0  0  0
    1.5722   -0.6508   -2.0310 C   0  0  0  0  0  0  0  0  0  0  0  0
   -0.4004    1.1234   -0.6677 C   0  0  0  0  0  0  0  0  0  0  0  0
   -0.5729   -0.6776    1.0269 C   0  0  0  0  0  0  0  0  0  0  0  0
   -0.6894    2.1506    0.4520 C   0  0  0  0  0  0  0  0  0  0  0  0
   -0.8587    0.4041    2.0925 C   0  0  0  0  0  0  0  0  0  0  0  0
   -1.5272    1.6011    1.5370 N   0  0  0  0  0  0  0  0  0  0  0  0
   -1.7432    2.6001    2.5810 C   0  0  0  0  0  0  0  0  0  0  0  0
    2.2791   -3.7053   -3.3233 H   0  0  0  0  0  0  0  0  0  0  0  0
    2.7932   -1.2852   -3.6935 H   0  0  0  0  0  0  0  0  0  0  0  0
    1.8258    0.3930   -2.1759 H   0  0  0  0  0  0  0  0  0  0  0  0
   -1.3304    0.8917   -1.2026 H   0  0  0  0  0  0  0  0  0  0  0  0
    0.2766    1.6066   -1.3788 H   0  0  0  0  0  0  0  0  0  0  0  0
   -1.5214   -1.1088    0.6809 H   0  0  0  0  0  0  0  0  0  0  0  0
    0.0057   -1.4711    1.5165 H   0  0  0  0  0  0  0  0  0  0  0  0
    0.2671    2.5090    0.8564 H   0  0  0  0  0  0  0  0  0  0  0  0
   -1.1954    3.0125    0.0004 H   0  0  0  0  0  0  0  0  0  0  0  0
   -1.4920   -0.0414    2.8693 H   0  0  0  0  0  0  0  0  0  0  0  0
    0.0896    0.6888    2.5685 H   0  0  0  0  0  0  0  0  0  0  0  0
   -0.8054    2.9365    3.0375 H   0  0  0  0  0  0  0  0  0  0  0  0
   -2.2603    3.4753    2.1724 H   0  0  0  0  0  0  0  0  0  0  0  0
   -2.3852    2.1958    3.3713 H   0  0  0  0  0  0  0  0  0  0  0  0
  1  2  1  0  0  0  0
  2  3  2  0  0  0  0
  2  4  1  0  0  0  0
  3  5  1  0  0  0  0
  4  6  2  0  0  0  0
  5  7  1  0  0  0  0
  5  8  2  0  0  0  0
  7  9  1  0  0  0  0
  7 10  1  0  0  0  0
  9 11  1  0  0  0  0
 10 12  1  0  0  0  0
 11 13  1  0  0  0  0
 13 14  1  0  0  0  0
  6  8  1  0  0  0  0
 12 13  1  0  0  0  0
  4 15  1  0  0  0  0
  6 16  1  0  0  0  0
  8 17  1  0  0  0  0
  9 18  1  0  0  0  0
  9 19  1  0  0  0  0
 10 20  1  0  0  0  0
 10 21  1  0  0  0  0
 11 22  1  0  0  0  0
 11 23  1  0  0  0  0
 12 24  1  0  0  0  0
 12 25  1  0  0  0  0
 14 26  1  0  0  0  0
 14 27  1  0  0  0  0
 14 28  1  0  0  0  0
M  END
>  <Column 1>
CN1CCN(c2cccc(Cl)n2)CC1 ZINC000000017836

>  <Total Molweight>
211.695

>  <cLogP>
1.4919

>  <cLogS>
-1.45

>  <H-Acceptors>
3

>  <H-Donors>
0

>  <Total Surface Area>
161.84

>  <MMFF94 Energy>
52.815

$$$$
Compound 105
Actelion Java MolfileCreator 1.0

 22 23  0  0  0  0  0  0  0  0999 V2000
    0.4769   -3.1827    0.9540 O   0  0  0  0  0  0  0  0  0  0  0  0
    0.3225   -2.0849    0.4054 C   0  0  0  0  0  0  0  0  0  0  0  0
    0.2288   -0.9892    1.1937 N   0  0  0  0  0  0  0  0  0  0  0  0
    0.1567   -2.0487   -1.0902 C   0  0  0  0  0  0  0  0  0  0  0  0
   -0.0128    0.3555    0.9055 C   0  0  0  0  0  0  0  0  0  0  0  0
   -0.2253   -3.2511   -1.6507 N   0  0  0  0  0  0  0  0  0  0  0  0
    0.4684   -0.9955   -1.8505 C   0  0  0  0  0  0  0  0  0  0  0  0
    0.3316    1.0018   -0.2791 C   0  0  0  0  0  0  0  0  0  0  0  0
   -0.5662    1.1116    1.9540 C   0  0  0  0  0  0  0  0  0  0  0  0
    0.9365    0.3351   -1.4404 C   0  0  0  0  0  0  0  0  0  0  0  0
    0.1271    2.3903   -0.4014 C   0  0  0  0  0  0  0  0  0  0  0  0
   -0.7839    2.4845    1.8207 C   0  0  0  0  0  0  0  0  0  0  0  0
    1.7289    0.9368   -2.1607 O   0  0  0  0  0  0  0  0  0  0  0  0
   -0.4334    3.1269    0.6407 C   0  0  0  0  0  0  0  0  0  0  0  0
    0.2829   -1.2474    2.1729 H   0  0  0  0  0  0  0  0  0  0  0  0
   -0.2360   -3.3899   -2.6516 H   0  0  0  0  0  0  0  0  0  0  0  0
   -0.2522   -4.0537   -1.0222 H   0  0  0  0  0  0  0  0  0  0  0  0
    0.4375   -1.0998   -2.9316 H   0  0  0  0  0  0  0  0  0  0  0  0
   -0.8378    0.6366    2.8952 H   0  0  0  0  0  0  0  0  0  0  0  0
    0.4094    2.9043   -1.3198 H   0  0  0  0  0  0  0  0  0  0  0  0
   -1.2167    3.0504    2.6423 H   0  0  0  0  0  0  0  0  0  0  0  0
   -0.5880    4.1976    0.5306 H   0  0  0  0  0  0  0  0  0  0  0  0
  1  2  2  0  0  0  0
  2  3  1  0  0  0  0
  2  4  1  0  0  0  0
  3  5  1  0  0  0  0
  4  6  1  0  0  0  0
  4  7  2  0  0  0  0
  5  8  2  0  0  0  0
  5  9  1  0  0  0  0
  7 10  1  0  0  0  0
  8 11  1  0  0  0  0
  9 12  2  0  0  0  0
 10 13  2  0  0  0  0
 11 14  2  0  0  0  0
  8 10  1  0  0  0  0
 12 14  1  0  0  0  0
  3 15  1  0  0  0  0
  6 16  1  0  0  0  0
  6 17  1  0  0  0  0
  7 18  1  0  0  0  0
  9 19  1  0  0  0  0
 11 20  1  0  0  0  0
 12 21  1  0  0  0  0
 14 22  1  0  0  0  0
M  END
>  <Column 1>
Nc1cc(=O)c2ccccc2[nH]c1=O ZINC000000017866

>  <Total Molweight>
188.186

>  <cLogP>
-0.2709

>  <cLogS>
-2.507

>  <H-Acceptors>
4

>  <H-Donors>
2

>  <Total Surface Area>
139.95

>  <MMFF94 Energy>
63.753

$$$$
Compound 106
Actelion Java MolfileCreator 1.0

 21 22  0  0  0  0  0  0  0  0999 V2000
   -1.0258   -2.6054   -1.1836 O   0  0  0  0  0  0  0  0  0  0  0  0
   -1.1977   -1.6431   -0.4427 C   0  0  0  0  0  0  0  0  0  0  0  0
   -2.3282   -1.5151    0.3299 N   0  0  0  0  0  0  0  0  0  0  0  0
   -0.2010   -0.5408   -0.3238 C   0  0  0  0  0  0  0  0  0  0  0  0
   -2.5665   -0.4576    1.1666 C   0  0  0  0  0  0  0  0  0  0  0  0
   -0.4507    0.4998    0.4964 C   0  0  0  0  0  0  0  0  0  0  0  0
    1.0717   -0.6351   -1.1161 C   0  0  0  0  0  0  0  0  0  0  0  0
   -1.6748    0.5352    1.2687 C   0  0  0  0  0  0  0  0  0  0  0  0
    0.4413    1.5433    0.6122 N   0  0  0  0  0  0  0  0  0  0  0  0
    2.1666    0.2879   -0.5618 C   0  0  0  0  0  0  0  0  0  0  0  0
    1.6150    1.6739   -0.2314 C   0  0  0  0  0  0  0  0  0  0  0  0
   -3.0015   -2.2666    0.2481 H   0  0  0  0  0  0  0  0  0  0  0  0
   -3.4955   -0.4716    1.7261 H   0  0  0  0  0  0  0  0  0  0  0  0
    0.8590   -0.3683   -2.1585 H   0  0  0  0  0  0  0  0  0  0  0  0
    1.4527   -1.6629   -1.1134 H   0  0  0  0  0  0  0  0  0  0  0  0
   -1.8582    1.3739    1.9302 H   0  0  0  0  0  0  0  0  0  0  0  0
    0.1962    2.3187    1.2176 H   0  0  0  0  0  0  0  0  0  0  0  0
    2.5814   -0.1607    0.3509 H   0  0  0  0  0  0  0  0  0  0  0  0
    2.9898    0.3683   -1.2803 H   0  0  0  0  0  0  0  0  0  0  0  0
    2.3752    2.2716    0.2819 H   0  0  0  0  0  0  0  0  0  0  0  0
    1.3418    2.2014   -1.1524 H   0  0  0  0  0  0  0  0  0  0  0  0
  1  2  2  0  0  0  0
  2  3  1  0  0  0  0
  2  4  1  0  0  0  0
  3  5  1  0  0  0  0
  4  6  2  0  0  0  0
  4  7  1  0  0  0  0
  5  8  2  0  0  0  0
  6  9  1  0  0  0  0
  7 10  1  0  0  0  0
  9 11  1  0  0  0  0
  6  8  1  0  0  0  0
 10 11  1  0  0  0  0
  3 12  1  0  0  0  0
  5 13  1  0  0  0  0
  7 14  1  0  0  0  0
  7 15  1  0  0  0  0
  8 16  1  0  0  0  0
  9 17  1  0  0  0  0
 10 18  1  0  0  0  0
 10 19  1  0  0  0  0
 11 20  1  0  0  0  0
 11 21  1  0  0  0  0
M  END
>  <Column 1>
O=c1[nH]ccc2c1CCCN2 ZINC000000018291

>  <Total Molweight>
150.18

>  <cLogP>
-0.1641

>  <cLogS>
-1.536

>  <H-Acceptors>
3

>  <H-Donors>
2

>  <Total Surface Area>
117.87

>  <MMFF94 Energy>
-24.052

$$$$
Compound 107
Actelion Java MolfileCreator 1.0

 31 33  0  0  0  0  0  0  0  0999 V2000
    1.4329    0.9551    0.3979 O   0  0  0  0  0  0  0  0  0  0  0  0
    0.5745   -0.0223    0.8338 C   0  0  0  0  0  0  0  0  0  0  0  0
    2.5941    0.2920    0.1398 C   0  0  0  0  0  0  0  0  0  0  0  0
    1.1008   -1.2309    0.8607 N   0  0  0  0  0  0  0  0  0  0  0  0
   -0.6771    0.3525    1.1692 N   0  0  0  0  0  0  0  0  0  0  0  0
    2.3863   -1.0453    0.4248 C   0  0  0  0  0  0  0  0  0  0  0  0
    3.7882    0.8282   -0.3262 C   0  0  0  0  0  0  0  0  0  0  0  0
   -1.2285    1.6467    0.7733 C   0  0  0  0  0  0  0  0  0  0  0  0
   -1.6887   -0.6728    1.4242 C   0  0  0  0  0  0  0  0  0  0  0  0
    3.4396   -1.9498    0.2394 C   0  0  0  0  0  0  0  0  0  0  0  0
    4.8329   -0.0869   -0.5068 C   0  0  0  0  0  0  0  0  0  0  0  0
   -2.1334    1.4653   -0.4701 C   0  0  0  0  0  0  0  0  0  0  0  0
   -2.5896   -0.8335    0.1757 C   0  0  0  0  0  0  0  0  0  0  0  0
    4.6646   -1.4504   -0.2302 C   0  0  0  0  0  0  0  0  0  0  0  0
   -3.1957    0.4511   -0.2577 N   0  0  0  0  0  0  0  0  0  0  0  0
   -3.9796    0.2634   -1.4763 C   0  0  0  0  0  0  0  0  0  0  0  0
    3.8980    1.8851   -0.5325 H   0  0  0  0  0  0  0  0  0  0  0  0
   -1.8275    2.0453    1.6023 H   0  0  0  0  0  0  0  0  0  0  0  0
   -0.4560    2.3956    0.5653 H   0  0  0  0  0  0  0  0  0  0  0  0
   -1.2492   -1.6403    1.6946 H   0  0  0  0  0  0  0  0  0  0  0  0
   -2.3030   -0.3615    2.2789 H   0  0  0  0  0  0  0  0  0  0  0  0
    3.3049   -3.0035    0.4558 H   0  0  0  0  0  0  0  0  0  0  0  0
    5.7958    0.2694   -0.8687 H   0  0  0  0  0  0  0  0  0  0  0  0
   -1.5076    1.1831   -1.3274 H   0  0  0  0  0  0  0  0  0  0  0  0
   -2.5961    2.4320   -0.7024 H   0  0  0  0  0  0  0  0  0  0  0  0
   -3.3863   -1.5477    0.4160 H   0  0  0  0  0  0  0  0  0  0  0  0
   -1.9939   -1.2638   -0.6406 H   0  0  0  0  0  0  0  0  0  0  0  0
    5.4967   -2.1356   -0.3801 H   0  0  0  0  0  0  0  0  0  0  0  0
   -4.4562    1.2040   -1.7740 H   0  0  0  0  0  0  0  0  0  0  0  0
   -3.3688   -0.0934   -2.3134 H   0  0  0  0  0  0  0  0  0  0  0  0
   -4.7861   -0.4583   -1.3059 H   0  0  0  0  0  0  0  0  0  0  0  0
  1  2  1  0  0  0  0
  1  3  1  0  0  0  0
  2  4  2  0  0  0  0
  2  5  1  0  0  0  0
  3  6  2  0  0  0  0
  3  7  1  0  0  0  0
  5  8  1  0  0  0  0
  5  9  1  0  0  0  0
  6 10  1  0  0  0  0
  7 11  2  0  0  0  0
  8 12  1  0  0  0  0
  9 13  1  0  0  0  0
 10 14  2  0  0  0  0
 12 15  1  0  0  0  0
 15 16  1  0  0  0  0
  4  6  1  0  0  0  0
 11 14  1  0  0  0  0
 13 15  1  0  0  0  0
  7 17  1  0  0  0  0
  8 18  1  0  0  0  0
  8 19  1  0  0  0  0
  9 20  1  0  0  0  0
  9 21  1  0  0  0  0
 10 22  1  0  0  0  0
 11 23  1  0  0  0  0
 12 24  1  0  0  0  0
 12 25  1  0  0  0  0
 13 26  1  0  0  0  0
 13 27  1  0  0  0  0
 14 28  1  0  0  0  0
 16 29  1  0  0  0  0
 16 30  1  0  0  0  0
 16 31  1  0  0  0  0
M  END
>  <Column 1>
CN1CCN(c2nc3ccccc3o2)CC1 ZINC000000019141

>  <Total Molweight>
217.271

>  <cLogP>
1.8193

>  <cLogS>
-2.337

>  <H-Acceptors>
4

>  <H-Donors>
0

>  <Total Surface Area>
170.71

>  <MMFF94 Energy>
46.27

$$$$
Compound 108
Actelion Java MolfileCreator 1.0

 25 26  0  0  0  0  0  0  0  0999 V2000
    0.5553    2.0638   -0.0000 O   0  0  0  0  0  0  0  0  0  0  0  0
   -0.2339    1.2214    0.4314 C   0  0  0  0  0  0  0  0  0  0  0  0
   -0.7745    0.2231   -0.3773 N   0  0  0  0  0  0  0  0  0  0  0  0
   -0.6522    1.2093    1.7629 N   0  0  0  0  0  0  0  0  0  0  0  0
   -1.6891   -0.7198    0.0514 C   0  0  0  0  0  0  0  0  0  0  0  0
   -0.3544    0.1751   -1.7668 C   0  0  0  0  0  0  0  0  0  0  0  0
   -1.5422    0.2814    2.2490 C   0  0  0  0  0  0  0  0  0  0  0  0
   -0.1297    2.2095    2.6854 C   0  0  0  0  0  0  0  0  0  0  0  0
   -2.2031   -1.5818   -0.6579 O   0  0  0  0  0  0  0  0  0  0  0  0
   -2.0677   -0.6619    1.4716 C   0  0  0  0  0  0  0  0  0  0  0  0
    0.8457   -0.7048   -1.8926 C   0  0  0  0  0  0  0  0  0  0  0  0
    2.1711   -0.3263   -1.8097 C   0  0  0  0  0  0  0  0  0  0  0  0
    0.8702   -2.1108   -2.1222 C   0  0  0  0  0  0  0  0  0  0  0  0
    2.9906   -1.3951   -1.9742 O   0  0  0  0  0  0  0  0  0  0  0  0
    2.1941   -2.4772   -2.1630 C   0  0  0  0  0  0  0  0  0  0  0  0
   -1.1657   -0.2130   -2.3939 H   0  0  0  0  0  0  0  0  0  0  0  0
   -0.1225    1.1824   -2.1319 H   0  0  0  0  0  0  0  0  0  0  0  0
   -1.8044    0.3482    3.3012 H   0  0  0  0  0  0  0  0  0  0  0  0
    0.3894    1.7012    3.5044 H   0  0  0  0  0  0  0  0  0  0  0  0
    0.5713    2.8931    2.1998 H   0  0  0  0  0  0  0  0  0  0  0  0
   -0.9644    2.7926    3.0877 H   0  0  0  0  0  0  0  0  0  0  0  0
   -2.7709   -1.4008    1.8318 H   0  0  0  0  0  0  0  0  0  0  0  0
    2.6656    0.6212   -1.6397 H   0  0  0  0  0  0  0  0  0  0  0  0
    0.0206   -2.7712   -2.2368 H   0  0  0  0  0  0  0  0  0  0  0  0
    2.7081   -3.4170   -2.3078 H   0  0  0  0  0  0  0  0  0  0  0  0
  1  2  2  0  0  0  0
  2  3  1  0  0  0  0
  2  4  1  0  0  0  0
  3  5  1  0  0  0  0
  3  6  1  0  0  0  0
  4  7  1  0  0  0  0
  4  8  1  0  0  0  0
  5  9  2  0  0  0  0
  5 10  1  0  0  0  0
  6 11  1  0  0  0  0
 11 12  2  0  0  0  0
 11 13  1  0  0  0  0
 12 14  1  0  0  0  0
 13 15  2  0  0  0  0
  7 10  2  0  0  0  0
 14 15  1  0  0  0  0
  6 16  1  0  0  0  0
  6 17  1  0  0  0  0
  7 18  1  0  0  0  0
  8 19  1  0  0  0  0
  8 20  1  0  0  0  0
  8 21  1  0  0  0  0
 10 22  1  0  0  0  0
 12 23  1  0  0  0  0
 13 24  1  0  0  0  0
 15 25  1  0  0  0  0
M  END
>  <Column 1>
Cn1ccc(=O)n(Cc2ccoc2)c1=O ZINC000000019214

>  <Total Molweight>
206.2

>  <cLogP>
0.0174

>  <cLogS>
-1.509

>  <H-Acceptors>
5

>  <H-Donors>
0

>  <Total Surface Area>
158.07

>  <MMFF94 Energy>
-81.581

$$$$
Compound 109
Actelion Java MolfileCreator 1.0

 16 16  0  0  0  0  0  0  0  0999 V2000
    0.3941    0.4729   -2.7613 F   0  0  0  0  0  0  0  0  0  0  0  0
    0.5972   -0.3997   -1.7496 C   0  0  0  0  0  0  0  0  0  0  0  0
    0.1370    0.0035   -0.4391 C   0  0  0  0  0  0  0  0  0  0  0  0
    1.1944   -1.5603   -2.0438 C   0  0  0  0  0  0  0  0  0  0  0  0
   -1.1809    0.7006   -0.3021 C   0  0  0  0  0  0  0  0  0  0  0  0
    0.8469   -0.1774    0.6864 C   0  0  0  0  0  0  0  0  0  0  0  0
   -1.9344    0.8937   -1.2514 O   0  0  0  0  0  0  0  0  0  0  0  0
   -1.5300    1.0988    0.9622 N   0  0  0  0  0  0  0  0  0  0  0  0
    0.3944    0.2441    1.9069 N   0  0  0  0  0  0  0  0  0  0  0  0
   -0.7951    0.8913    2.0921 C   0  0  0  0  0  0  0  0  0  0  0  0
   -1.1699    1.2561    3.2006 O   0  0  0  0  0  0  0  0  0  0  0  0
    1.4929   -1.7640   -3.0670 H   0  0  0  0  0  0  0  0  0  0  0  0
    1.3800   -2.3279   -1.3019 H   0  0  0  0  0  0  0  0  0  0  0  0
    1.8218   -0.6562    0.6901 H   0  0  0  0  0  0  0  0  0  0  0  0
   -2.4150    1.5693    1.0676 H   0  0  0  0  0  0  0  0  0  0  0  0
    0.9475    0.0956    2.7440 H   0  0  0  0  0  0  0  0  0  0  0  0
  1  2  1  0  0  0  0
  2  3  1  0  0  0  0
  2  4  2  0  0  0  0
  3  5  1  0  0  0  0
  3  6  2  0  0  0  0
  5  7  2  0  0  0  0
  5  8  1  0  0  0  0
  6  9  1  0  0  0  0
  8 10  1  0  0  0  0
 10 11  2  0  0  0  0
  9 10  1  0  0  0  0
  4 12  1  0  0  0  0
  4 13  1  0  0  0  0
  6 14  1  0  0  0  0
  8 15  1  0  0  0  0
  9 16  1  0  0  0  0
M  END
>  <Column 1>
C=C(F)c1c[nH]c(=O)[nH]c1=O ZINC000000019687

>  <Total Molweight>
156.116

>  <cLogP>
0.2023

>  <cLogS>
-2.098

>  <H-Acceptors>
4

>  <H-Donors>
2

>  <Total Surface Area>
112.23

>  <MMFF94 Energy>
-74.755

$$$$
Compound 110
Actelion Java MolfileCreator 1.0

 33 35  0  0  1  0  0  0  0  0999 V2000
   -2.2388    0.9116   -4.3981 Cl  0  0  0  0  0  0  0  0  0  0  0  0
   -1.2408    0.3908   -3.0893 C   0  0  0  0  0  0  0  0  0  0  0  0
   -1.7263   -0.0604   -1.8626 C   0  0  0  0  0  0  0  0  0  0  0  0
    0.1412    0.4469   -3.2941 C   0  0  0  0  0  0  0  0  0  0  0  0
   -3.4575   -0.1684   -1.5361 S   0  0  0  0  0  0  0  0  0  0  0  0
   -0.8321   -0.4598   -0.8521 C   0  0  0  0  0  0  0  0  0  0  0  0
    1.0301    0.0545   -2.2880 C   0  0  0  0  0  0  0  0  0  0  0  0
   -3.6485   -0.5049   -0.1427 O   0  0  0  0  0  0  0  0  0  0  0  0
   -4.1006   -0.9141   -2.5901 O   0  0  0  0  0  0  0  0  0  0  0  0
   -3.9760    1.4232   -1.6585 N   0  0  0  0  0  0  0  0  0  0  0  0
    0.5622   -0.4116   -1.0491 C   0  0  0  0  0  0  0  0  0  0  0  0
    1.5254   -0.8221    0.0534 C   0  0  0  0  0  0  0  0  0  0  0  0
    2.8410   -0.9774   -0.4282 O   0  0  0  0  0  0  0  0  0  0  0  0
    1.1868   -2.0860    0.6337 N   0  0  0  0  0  0  0  0  0  0  0  0
    1.5395    0.0968    1.2410 C   0  0  0  0  0  0  0  0  0  0  0  0
    0.9827   -2.0186    1.9930 C   0  0  0  0  0  0  0  0  0  0  0  0
    1.2099   -0.6252    2.3897 C   0  0  0  0  0  0  0  0  0  0  0  0
    1.8253    1.4498    1.3313 C   0  0  0  0  0  0  0  0  0  0  0  0
    0.6778   -2.9328    2.7299 O   0  0  0  0  0  0  0  0  0  0  0  0
    1.1382   -0.0509    3.6438 C   0  0  0  0  0  0  0  0  0  0  0  0
    1.7597    2.0565    2.5912 C   0  0  0  0  0  0  0  0  0  0  0  0
    1.4174    1.3134    3.7372 C   0  0  0  0  0  0  0  0  0  0  0  0
    0.5414    0.7994   -4.2431 H   0  0  0  0  0  0  0  0  0  0  0  0
   -1.2245   -0.8130    0.1026 H   0  0  0  0  0  0  0  0  0  0  0  0
    2.1005    0.1158   -2.4836 H   0  0  0  0  0  0  0  0  0  0  0  0
   -4.3735    1.7273   -0.7691 H   0  0  0  0  0  0  0  0  0  0  0  0
   -4.6130    1.5197   -2.4510 H   0  0  0  0  0  0  0  0  0  0  0  0
    3.2267   -1.6504    0.1561 H   0  0  0  0  0  0  0  0  0  0  0  0
    1.0479   -2.9374    0.1096 H   0  0  0  0  0  0  0  0  0  0  0  0
    2.0952    2.0265    0.4516 H   0  0  0  0  0  0  0  0  0  0  0  0
    0.8765   -0.6406    4.5162 H   0  0  0  0  0  0  0  0  0  0  0  0
    1.9780    3.1185    2.6892 H   0  0  0  0  0  0  0  0  0  0  0  0
    1.3734    1.8084    4.7053 H   0  0  0  0  0  0  0  0  0  0  0  0
  1  2  1  0  0  0  0
  2  3  2  0  0  0  0
  2  4  1  0  0  0  0
  3  5  1  0  0  0  0
  3  6  1  0  0  0  0
  4  7  2  0  0  0  0
  5  8  2  0  0  0  0
  5  9  2  0  0  0  0
  5 10  1  0  0  0  0
  6 11  2  0  0  0  0
 11 12  1  0  0  0  0
 12 13  1  0  0  0  0
 12 14  1  0  0  0  0
 12 15  1  0  0  0  0
 14 16  1  0  0  0  0
 15 17  2  0  0  0  0
 15 18  1  0  0  0  0
 16 19  2  0  0  0  0
 17 20  1  0  0  0  0
 18 21  2  0  0  0  0
 20 22  2  0  0  0  0
  7 11  1  0  0  0  0
 16 17  1  0  0  0  0
 21 22  1  0  0  0  0
  4 23  1  0  0  0  0
  6 24  1  0  0  0  0
  7 25  1  0  0  0  0
 10 26  1  0  0  0  0
 10 27  1  0  0  0  0
 13 28  1  0  0  0  0
 14 29  1  0  0  0  0
 18 30  1  0  0  0  0
 20 31  1  0  0  0  0
 21 32  1  0  0  0  0
 22 33  1  0  0  0  0
M  END
>  <Column 1>
NS(=O)(=O)c1cc([C@]2(O)NC(=O)c3ccccc32)ccc1Cl ZINC000000020253

>  <Total Molweight>
338.77

>  <cLogP>
1.951

>  <cLogS>
-3.465

>  <H-Acceptors>
6

>  <H-Donors>
3

>  <Total Surface Area>
218.01

>  <MMFF94 Energy>
-105.23

$$$$
Compound 111
Actelion Java MolfileCreator 1.0

 31 33  0  0  0  0  0  0  0  0999 V2000
   -0.1576   -0.0788   -0.0788 O   0  0  0  0  0  0  0  0  0  0  0  0
    0.9843    0.2087    0.6327 C   0  0  0  0  0  0  0  0  0  0  0  0
   -0.6411   -1.3990    0.1633 C   0  0  0  0  0  0  0  0  0  0  0  0
    1.5495   -0.6927    1.4579 N   0  0  0  0  0  0  0  0  0  0  0  0
    1.5799    1.4362    0.5154 C   0  0  0  0  0  0  0  0  0  0  0  0
   -1.8861   -1.5859   -0.6696 C   0  0  0  0  0  0  0  0  0  0  0  0
    2.6660   -0.3444    2.1230 C   0  0  0  0  0  0  0  0  0  0  0  0
    1.3222    2.5738   -0.1901 N   0  0  0  0  0  0  0  0  0  0  0  0
    2.7228    1.7127    1.2325 C   0  0  0  0  0  0  0  0  0  0  0  0
   -3.1443   -1.2404   -0.1559 C   0  0  0  0  0  0  0  0  0  0  0  0
   -1.7975   -2.0685   -1.9830 C   0  0  0  0  0  0  0  0  0  0  0  0
    3.3013    0.8272    2.0604 N   0  0  0  0  0  0  0  0  0  0  0  0
    3.2013   -1.2931    2.9478 N   0  0  0  0  0  0  0  0  0  0  0  0
    2.3018    3.4783    0.1220 C   0  0  0  0  0  0  0  0  0  0  0  0
    3.1616    2.9854    0.9792 N   0  0  0  0  0  0  0  0  0  0  0  0
   -4.2929   -1.3955   -0.9337 C   0  0  0  0  0  0  0  0  0  0  0  0
   -2.9475   -2.2228   -2.7591 C   0  0  0  0  0  0  0  0  0  0  0  0
    2.3109    4.6952   -0.4227 N   0  0  0  0  0  0  0  0  0  0  0  0
   -4.1944   -1.8885   -2.2336 C   0  0  0  0  0  0  0  0  0  0  0  0
   -0.8891   -1.5376    1.2240 H   0  0  0  0  0  0  0  0  0  0  0  0
    0.1061   -2.1496   -0.1263 H   0  0  0  0  0  0  0  0  0  0  0  0
    0.5529    2.7227   -0.8246 H   0  0  0  0  0  0  0  0  0  0  0  0
   -3.2348   -0.8465    0.8542 H   0  0  0  0  0  0  0  0  0  0  0  0
   -0.8298   -2.3253   -2.4086 H   0  0  0  0  0  0  0  0  0  0  0  0
    4.0362   -1.0522    3.4540 H   0  0  0  0  0  0  0  0  0  0  0  0
    2.7442   -2.1843    3.0149 H   0  0  0  0  0  0  0  0  0  0  0  0
   -5.2647   -1.1292   -0.5260 H   0  0  0  0  0  0  0  0  0  0  0  0
   -2.8700   -2.6016   -3.7748 H   0  0  0  0  0  0  0  0  0  0  0  0
    3.0562    5.3351   -0.1634 H   0  0  0  0  0  0  0  0  0  0  0  0
    1.6336    5.0522   -1.0837 H   0  0  0  0  0  0  0  0  0  0  0  0
   -5.0892   -2.0087   -2.8386 H   0  0  0  0  0  0  0  0  0  0  0  0
  1  2  1  0  0  0  0
  1  3  1  0  0  0  0
  2  4  2  0  0  0  0
  2  5  1  0  0  0  0
  3  6  1  0  0  0  0
  4  7  1  0  0  0  0
  5  8  1  0  0  0  0
  5  9  2  0  0  0  0
  6 10  2  0  0  0  0
  6 11  1  0  0  0  0
  7 12  2  0  0  0  0
  7 13  1  0  0  0  0
  8 14  1  0  0  0  0
  9 15  1  0  0  0  0
 10 16  1  0  0  0  0
 11 17  2  0  0  0  0
 14 18  1  0  0  0  0
 16 19  2  0  0  0  0
  9 12  1  0  0  0  0
 14 15  2  0  0  0  0
 17 19  1  0  0  0  0
  3 20  1  0  0  0  0
  3 21  1  0  0  0  0
  8 22  1  0  0  0  0
 10 23  1  0  0  0  0
 11 24  1  0  0  0  0
 13 25  1  0  0  0  0
 13 26  1  0  0  0  0
 16 27  1  0  0  0  0
 17 28  1  0  0  0  0
 18 29  1  0  0  0  0
 18 30  1  0  0  0  0
 19 31  1  0  0  0  0
M  END
>  <Column 1>
Nc1nc(OCc2ccccc2)c2[nH]c(N)nc2n1 ZINC000000021194

>  <Total Molweight>
256.268

>  <cLogP>
1.0628

>  <cLogS>
-4.228

>  <H-Acceptors>
7

>  <H-Donors>
3

>  <Total Surface Area>
194.27

>  <MMFF94 Energy>
-150.36

$$$$
Compound 112
Actelion Java MolfileCreator 1.0

 29 30  0  0  0  0  0  0  0  0999 V2000
   -1.1799    0.3932    3.7008 O   0  0  0  0  0  0  0  0  0  0  0  0
   -0.3599    1.5041    3.8346 N   0  0  0  0  0  0  0  0  0  0  0  0
   -1.1950   -0.0278    2.3986 C   0  0  0  0  0  0  0  0  0  0  0  0
    0.1106    1.7360    2.6080 C   0  0  0  0  0  0  0  0  0  0  0  0
   -1.9745   -1.0985    2.1453 N   0  0  0  0  0  0  0  0  0  0  0  0
   -0.3705    0.8023    1.6690 C   0  0  0  0  0  0  0  0  0  0  0  0
   -2.1960   -1.6313    0.8255 C   0  0  0  0  0  0  0  0  0  0  0  0
   -0.0567    0.7388    0.2829 C   0  0  0  0  0  0  0  0  0  0  0  0
   -0.7043    1.4498   -0.6575 C   0  0  0  0  0  0  0  0  0  0  0  0
    1.0783   -0.2072   -0.0605 C   0  0  0  0  0  0  0  0  0  0  0  0
   -0.3263    1.3487   -2.1075 C   0  0  0  0  0  0  0  0  0  0  0  0
    1.1093   -0.5808   -1.4911 N   0  0  0  0  0  0  0  0  0  0  0  0
    1.0108    0.6203   -2.3341 C   0  0  0  0  0  0  0  0  0  0  0  0
    2.3234   -1.3351   -1.7944 C   0  0  0  0  0  0  0  0  0  0  0  0
    0.7833    2.5680    2.4565 H   0  0  0  0  0  0  0  0  0  0  0  0
   -2.4876   -1.5262    2.9098 H   0  0  0  0  0  0  0  0  0  0  0  0
   -1.2742   -2.0360    0.3985 H   0  0  0  0  0  0  0  0  0  0  0  0
   -2.6126   -0.8748    0.1533 H   0  0  0  0  0  0  0  0  0  0  0  0
   -2.9177   -2.4529    0.8809 H   0  0  0  0  0  0  0  0  0  0  0  0
   -1.5309    2.1038   -0.3941 H   0  0  0  0  0  0  0  0  0  0  0  0
    0.9841   -1.1302    0.5256 H   0  0  0  0  0  0  0  0  0  0  0  0
    2.0237    0.2709    0.2326 H   0  0  0  0  0  0  0  0  0  0  0  0
   -0.2610    2.3551   -2.5365 H   0  0  0  0  0  0  0  0  0  0  0  0
   -1.1299    0.8205   -2.6350 H   0  0  0  0  0  0  0  0  0  0  0  0
    1.0734    0.3472   -3.3947 H   0  0  0  0  0  0  0  0  0  0  0  0
    1.8443    1.3060   -2.1284 H   0  0  0  0  0  0  0  0  0  0  0  0
    2.3210   -1.6610   -2.8404 H   0  0  0  0  0  0  0  0  0  0  0  0
    3.2323   -0.7482   -1.6190 H   0  0  0  0  0  0  0  0  0  0  0  0
    2.3750   -2.2428   -1.1828 H   0  0  0  0  0  0  0  0  0  0  0  0
  1  2  1  0  0  0  0
  1  3  1  0  0  0  0
  2  4  2  0  0  0  0
  3  5  1  0  0  0  0
  3  6  2  0  0  0  0
  5  7  1  0  0  0  0
  6  8  1  0  0  0  0
  8  9  2  0  0  0  0
  8 10  1  0  0  0  0
  9 11  1  0  0  0  0
 10 12  1  0  0  0  0
 11 13  1  0  0  0  0
 12 14  1  0  0  0  0
  4  6  1  0  0  0  0
 12 13  1  0  0  0  0
  4 15  1  0  0  0  0
  5 16  1  0  0  0  0
  7 17  1  0  0  0  0
  7 18  1  0  0  0  0
  7 19  1  0  0  0  0
  9 20  1  0  0  0  0
 10 21  1  0  0  0  0
 10 22  1  0  0  0  0
 11 23  1  0  0  0  0
 11 24  1  0  0  0  0
 13 25  1  0  0  0  0
 13 26  1  0  0  0  0
 14 27  1  0  0  0  0
 14 28  1  0  0  0  0
 14 29  1  0  0  0  0
M  END
>  <Column 1>
CNc1oncc1C1=CCCN(C)C1 ZINC000000021868

>  <Total Molweight>
193.249

>  <cLogP>
0.3859

>  <cLogS>
-1.174

>  <H-Acceptors>
4

>  <H-Donors>
1

>  <Total Surface Area>
160.48

>  <MMFF94 Energy>
35.22

$$$$
Compound 113
Actelion Java MolfileCreator 1.0

 25 26  0  0  0  0  0  0  0  0999 V2000
    2.0187   -1.9379    1.5339 S   0  0  0  0  0  0  0  0  0  0  0  0
    1.7147   -0.6241    0.4381 C   0  0  0  0  0  0  0  0  0  0  0  0
    3.1186   -2.6321    0.4275 C   0  0  0  0  0  0  0  0  0  0  0  0
    2.4054   -0.7152   -0.6819 N   0  0  0  0  0  0  0  0  0  0  0  0
    0.8627    0.4057    0.7065 N   0  0  0  0  0  0  0  0  0  0  0  0
    3.1981   -1.8431   -0.6938 C   0  0  0  0  0  0  0  0  0  0  0  0
   -0.2283    0.3193    1.6803 C   0  0  0  0  0  0  0  0  0  0  0  0
    0.6245    1.4219   -0.3268 C   0  0  0  0  0  0  0  0  0  0  0  0
   -1.5595    0.0270    0.9431 C   0  0  0  0  0  0  0  0  0  0  0  0
   -0.7081    1.1203   -1.0532 C   0  0  0  0  0  0  0  0  0  0  0  0
   -1.8556    1.0237   -0.1149 N   0  0  0  0  0  0  0  0  0  0  0  0
   -3.0767    0.6665   -0.8332 C   0  0  0  0  0  0  0  0  0  0  0  0
    3.6406   -3.5524    0.6434 H   0  0  0  0  0  0  0  0  0  0  0  0
    3.8222   -2.0418   -1.5561 H   0  0  0  0  0  0  0  0  0  0  0  0
   -0.0640   -0.4330    2.4577 H   0  0  0  0  0  0  0  0  0  0  0  0
   -0.3102    1.2805    2.2045 H   0  0  0  0  0  0  0  0  0  0  0  0
    0.5616    2.4070    0.1539 H   0  0  0  0  0  0  0  0  0  0  0  0
    1.4419    1.4905   -1.0540 H   0  0  0  0  0  0  0  0  0  0  0  0
   -2.3696    0.0329    1.6821 H   0  0  0  0  0  0  0  0  0  0  0  0
   -1.5127   -0.9815    0.5107 H   0  0  0  0  0  0  0  0  0  0  0  0
   -0.8970    1.9249   -1.7738 H   0  0  0  0  0  0  0  0  0  0  0  0
   -0.6030    0.1853   -1.6196 H   0  0  0  0  0  0  0  0  0  0  0  0
   -3.9291    0.6313   -0.1458 H   0  0  0  0  0  0  0  0  0  0  0  0
   -3.3124    1.4239   -1.5889 H   0  0  0  0  0  0  0  0  0  0  0  0
   -2.9966   -0.3057   -1.3327 H   0  0  0  0  0  0  0  0  0  0  0  0
  1  2  1  0  0  0  0
  1  3  1  0  0  0  0
  2  4  2  0  0  0  0
  2  5  1  0  0  0  0
  3  6  2  0  0  0  0
  5  7  1  0  0  0  0
  5  8  1  0  0  0  0
  7  9  1  0  0  0  0
  8 10  1  0  0  0  0
  9 11  1  0  0  0  0
 11 12  1  0  0  0  0
  4  6  1  0  0  0  0
 10 11  1  0  0  0  0
  3 13  1  0  0  0  0
  6 14  1  0  0  0  0
  7 15  1  0  0  0  0
  7 16  1  0  0  0  0
  8 17  1  0  0  0  0
  8 18  1  0  0  0  0
  9 19  1  0  0  0  0
  9 20  1  0  0  0  0
 10 21  1  0  0  0  0
 10 22  1  0  0  0  0
 12 23  1  0  0  0  0
 12 24  1  0  0  0  0
 12 25  1  0  0  0  0
M  END
>  <Column 1>
CN1CCN(c2nccs2)CC1 ZINC000000022036

>  <Total Molweight>
183.278

>  <cLogP>
1.0633

>  <cLogS>
-0.954

>  <H-Acceptors>
3

>  <H-Donors>
0

>  <Total Surface Area>
142.36

>  <MMFF94 Energy>
51.449

$$$$
Compound 114
Actelion Java MolfileCreator 1.0

 38 40  0  0  0  0  0  0  0  0999 V2000
   -2.3214    2.4016    0.8801 O   0  0  0  0  0  0  0  0  0  0  0  0
   -1.2638    1.9605    1.3384 C   0  0  0  0  0  0  0  0  0  0  0  0
   -0.8568    0.6491    1.0916 N   0  0  0  0  0  0  0  0  0  0  0  0
   -0.4268    2.8831    2.1694 C   0  0  0  0  0  0  0  0  0  0  0  0
    0.2126   -0.0828    1.7837 C   0  0  0  0  0  0  0  0  0  0  0  0
   -1.5736   -0.0971    0.0491 C   0  0  0  0  0  0  0  0  0  0  0  0
    0.9258    2.7819    2.0738 N   0  0  0  0  0  0  0  0  0  0  0  0
   -1.0656    3.8550    2.9342 C   0  0  0  0  0  0  0  0  0  0  0  0
    1.1549   -0.7673    0.7843 C   0  0  0  0  0  0  0  0  0  0  0  0
   -1.0191   -1.5104   -0.1755 C   0  0  0  0  0  0  0  0  0  0  0  0
    1.6538    3.6700    2.7847 C   0  0  0  0  0  0  0  0  0  0  0  0
   -0.2841    4.7502    3.6592 C   0  0  0  0  0  0  0  0  0  0  0  0
    0.4466   -1.4976   -0.2751 N   0  0  0  0  0  0  0  0  0  0  0  0
    1.1014    4.6573    3.5855 C   0  0  0  0  0  0  0  0  0  0  0  0
    1.2206   -2.1192   -1.2553 C   0  0  0  0  0  0  0  0  0  0  0  0
    2.4394   -2.2574   -1.1190 O   0  0  0  0  0  0  0  0  0  0  0  0
    0.5971   -2.6402   -2.5130 C   0  0  0  0  0  0  0  0  0  0  0  0
   -0.4380   -1.9422   -3.0519 N   0  0  0  0  0  0  0  0  0  0  0  0
    1.1560   -3.7621   -3.1182 C   0  0  0  0  0  0  0  0  0  0  0  0
   -0.9370   -2.3996   -4.2205 C   0  0  0  0  0  0  0  0  0  0  0  0
    0.6126   -4.2095   -4.3191 C   0  0  0  0  0  0  0  0  0  0  0  0
   -0.4543   -3.5177   -4.8820 C   0  0  0  0  0  0  0  0  0  0  0  0
   -0.2901   -0.8448    2.3936 H   0  0  0  0  0  0  0  0  0  0  0  0
    0.7709    0.5285    2.4906 H   0  0  0  0  0  0  0  0  0  0  0  0
   -2.6345   -0.1444    0.3200 H   0  0  0  0  0  0  0  0  0  0  0  0
   -1.4950    0.4861   -0.8767 H   0  0  0  0  0  0  0  0  0  0  0  0
   -2.1491    3.9182    2.9559 H   0  0  0  0  0  0  0  0  0  0  0  0
    1.7858   -0.0168    0.2923 H   0  0  0  0  0  0  0  0  0  0  0  0
    1.8190   -1.4656    1.3063 H   0  0  0  0  0  0  0  0  0  0  0  0
   -1.2564   -2.1387    0.6930 H   0  0  0  0  0  0  0  0  0  0  0  0
   -1.5084   -1.9917   -1.0204 H   0  0  0  0  0  0  0  0  0  0  0  0
    2.7314    3.5674    2.6891 H   0  0  0  0  0  0  0  0  0  0  0  0
   -0.7532    5.5199    4.2660 H   0  0  0  0  0  0  0  0  0  0  0  0
    1.7374    5.3451    4.1325 H   0  0  0  0  0  0  0  0  0  0  0  0
    2.0029   -4.2697   -2.6673 H   0  0  0  0  0  0  0  0  0  0  0  0
   -1.7623   -1.8225   -4.6291 H   0  0  0  0  0  0  0  0  0  0  0  0
    1.0265   -5.0827   -4.8157 H   0  0  0  0  0  0  0  0  0  0  0  0
   -0.8943   -3.8370   -5.8207 H   0  0  0  0  0  0  0  0  0  0  0  0
  1  2  2  0  0  0  0
  2  3  1  0  0  0  0
  2  4  1  0  0  0  0
  3  5  1  0  0  0  0
  3  6  1  0  0  0  0
  4  7  2  0  0  0  0
  4  8  1  0  0  0  0
  5  9  1  0  0  0  0
  6 10  1  0  0  0  0
  7 11  1  0  0  0  0
  8 12  2  0  0  0  0
  9 13  1  0  0  0  0
 11 14  2  0  0  0  0
 13 15  1  0  0  0  0
 15 16  2  0  0  0  0
 15 17  1  0  0  0  0
 17 18  2  0  0  0  0
 17 19  1  0  0  0  0
 18 20  1  0  0  0  0
 19 21  2  0  0  0  0
 20 22  2  0  0  0  0
 10 13  1  0  0  0  0
 12 14  1  0  0  0  0
 21 22  1  0  0  0  0
  5 23  1  0  0  0  0
  5 24  1  0  0  0  0
  6 25  1  0  0  0  0
  6 26  1  0  0  0  0
  8 27  1  0  0  0  0
  9 28  1  0  0  0  0
  9 29  1  0  0  0  0
 10 30  1  0  0  0  0
 10 31  1  0  0  0  0
 11 32  1  0  0  0  0
 12 33  1  0  0  0  0
 14 34  1  0  0  0  0
 19 35  1  0  0  0  0
 20 36  1  0  0  0  0
 21 37  1  0  0  0  0
 22 38  1  0  0  0  0
M  END
>  <Column 1>
O=C(c1ccccn1)N1CCN(C(=O)c2ccccn2)CC1 ZINC000000022418

>  <Total Molweight>
296.329

>  <cLogP>
1.05

>  <cLogS>
-0.738

>  <H-Acceptors>
6

>  <H-Donors>
0

>  <Total Surface Area>
228.18

>  <MMFF94 Energy>
145.25

$$$$
Compound 115
Actelion Java MolfileCreator 1.0

 34 37  0  0  0  0  0  0  0  0999 V2000
    2.3624   -3.2596   -1.5473 S   0  0  0  0  0  0  0  0  0  0  0  0
    2.5658   -1.6649   -0.9484 N   0  0  0  0  0  0  0  0  0  0  0  0
    0.6631   -3.1888   -1.3525 C   0  0  0  0  0  0  0  0  0  0  0  0
    1.4141   -1.1413   -0.6069 C   0  0  0  0  0  0  0  0  0  0  0  0
   -0.3416   -3.9903   -1.5583 N   0  0  0  0  0  0  0  0  0  0  0  0
    0.3279   -1.9760   -0.8659 N   0  0  0  0  0  0  0  0  0  0  0  0
    1.2566    0.1151   -0.0482 N   0  0  0  0  0  0  0  0  0  0  0  0
   -1.4282   -3.2031   -1.2310 C   0  0  0  0  0  0  0  0  0  0  0  0
   -1.0422   -1.9161   -0.8202 C   0  0  0  0  0  0  0  0  0  0  0  0
    0.7949    0.2298    1.3494 C   0  0  0  0  0  0  0  0  0  0  0  0
    2.2348    1.1611   -0.4043 C   0  0  0  0  0  0  0  0  0  0  0  0
   -2.7937   -3.5229   -1.2834 C   0  0  0  0  0  0  0  0  0  0  0  0
   -1.9709   -0.9171   -0.5076 C   0  0  0  0  0  0  0  0  0  0  0  0
    0.2760    1.6519    1.6528 C   0  0  0  0  0  0  0  0  0  0  0  0
    1.6851    2.5655   -0.0792 C   0  0  0  0  0  0  0  0  0  0  0  0
   -3.7334   -2.5420   -0.9459 C   0  0  0  0  0  0  0  0  0  0  0  0
   -3.3261   -1.2604   -0.5727 C   0  0  0  0  0  0  0  0  0  0  0  0
    1.2704    2.6957    1.3336 N   0  0  0  0  0  0  0  0  0  0  0  0
    0.7279    4.0277    1.5933 C   0  0  0  0  0  0  0  0  0  0  0  0
    0.0006   -0.4922    1.5636 H   0  0  0  0  0  0  0  0  0  0  0  0
    1.6301   -0.0092    2.0203 H   0  0  0  0  0  0  0  0  0  0  0  0
    3.1723    0.9894    0.1393 H   0  0  0  0  0  0  0  0  0  0  0  0
    2.4566    1.1145   -1.4772 H   0  0  0  0  0  0  0  0  0  0  0  0
   -3.1064   -4.5139   -1.5947 H   0  0  0  0  0  0  0  0  0  0  0  0
   -1.6662    0.0881   -0.2429 H   0  0  0  0  0  0  0  0  0  0  0  0
    0.0205    1.7030    2.7180 H   0  0  0  0  0  0  0  0  0  0  0  0
   -0.6477    1.8253    1.0857 H   0  0  0  0  0  0  0  0  0  0  0  0
    2.4681    3.3002   -0.3011 H   0  0  0  0  0  0  0  0  0  0  0  0
    0.8366    2.7775   -0.7437 H   0  0  0  0  0  0  0  0  0  0  0  0
   -4.7937   -2.7806   -0.9904 H   0  0  0  0  0  0  0  0  0  0  0  0
   -4.0786   -0.5106   -0.3348 H   0  0  0  0  0  0  0  0  0  0  0  0
    0.4530    4.1304    2.6488 H   0  0  0  0  0  0  0  0  0  0  0  0
   -0.1574    4.2424    0.9841 H   0  0  0  0  0  0  0  0  0  0  0  0
    1.4819    4.7954    1.3880 H   0  0  0  0  0  0  0  0  0  0  0  0
  1  2  1  0  0  0  0
  1  3  1  0  0  0  0
  2  4  2  0  0  0  0
  3  5  2  0  0  0  0
  3  6  1  0  0  0  0
  4  7  1  0  0  0  0
  5  8  1  0  0  0  0
  6  9  1  0  0  0  0
  7 10  1  0  0  0  0
  7 11  1  0  0  0  0
  8 12  1  0  0  0  0
  9 13  1  0  0  0  0
 10 14  1  0  0  0  0
 11 15  1  0  0  0  0
 12 16  2  0  0  0  0
 13 17  2  0  0  0  0
 14 18  1  0  0  0  0
 18 19  1  0  0  0  0
  4  6  1  0  0  0  0
  8  9  2  0  0  0  0
 15 18  1  0  0  0  0
 16 17  1  0  0  0  0
 10 20  1  0  0  0  0
 10 21  1  0  0  0  0
 11 22  1  0  0  0  0
 11 23  1  0  0  0  0
 12 24  1  0  0  0  0
 13 25  1  0  0  0  0
 14 26  1  0  0  0  0
 14 27  1  0  0  0  0
 15 28  1  0  0  0  0
 15 29  1  0  0  0  0
 16 30  1  0  0  0  0
 17 31  1  0  0  0  0
 19 32  1  0  0  0  0
 19 33  1  0  0  0  0
 19 34  1  0  0  0  0
M  END
>  <Column 1>
CN1CCN(c2nsc3nc4ccccc4n23)CC1 ZINC000000022789

>  <Total Molweight>
273.363

>  <cLogP>
2.25

>  <cLogS>
-0.565

>  <H-Acceptors>
5

>  <H-Donors>
0

>  <Total Surface Area>
200.97

>  <MMFF94 Energy>
108.15

$$$$
Compound 116
Actelion Java MolfileCreator 1.0

 35 36  0  0  0  0  0  0  0  0999 V2000
   -2.5743   -1.6888   -0.7235 S   0  0  0  0  0  0  0  0  0  0  0  0
   -3.2946   -0.9170   -1.7079 O   0  0  0  0  0  0  0  0  0  0  0  0
   -2.2757   -3.0868   -0.9364 O   0  0  0  0  0  0  0  0  0  0  0  0
   -1.1189   -0.8939   -0.3778 N   0  0  0  0  0  0  0  0  0  0  0  0
   -3.3562   -1.5747    0.7600 N   0  0  0  0  0  0  0  0  0  0  0  0
   -1.1575    0.5981   -0.5255 C   0  0  0  0  0  0  0  0  0  0  0  0
    0.0526   -1.4224   -1.1566 C   0  0  0  0  0  0  0  0  0  0  0  0
   -4.0248   -0.3272    1.1354 C   0  0  0  0  0  0  0  0  0  0  0  0
   -2.7389   -2.2834    1.8906 C   0  0  0  0  0  0  0  0  0  0  0  0
    0.1245    1.2329    0.0391 C   0  0  0  0  0  0  0  0  0  0  0  0
    1.3726   -0.8325   -0.6283 C   0  0  0  0  0  0  0  0  0  0  0  0
    1.3221    0.6286   -0.5445 N   0  0  0  0  0  0  0  0  0  0  0  0
    2.5199    1.2978   -0.3762 C   0  0  0  0  0  0  0  0  0  0  0  0
    2.4961    2.5837    0.0164 N   0  0  0  0  0  0  0  0  0  0  0  0
    3.6691    0.6443   -0.6202 N   0  0  0  0  0  0  0  0  0  0  0  0
    3.6740    3.2209    0.1586 C   0  0  0  0  0  0  0  0  0  0  0  0
    4.8237    1.3195   -0.4654 C   0  0  0  0  0  0  0  0  0  0  0  0
    4.8876    2.6297   -0.0720 C   0  0  0  0  0  0  0  0  0  0  0  0
   -2.0114    1.0209    0.0065 H   0  0  0  0  0  0  0  0  0  0  0  0
   -1.2553    0.8576   -1.5871 H   0  0  0  0  0  0  0  0  0  0  0  0
   -0.0728   -1.1730   -2.2173 H   0  0  0  0  0  0  0  0  0  0  0  0
    0.1152   -2.5109   -1.0600 H   0  0  0  0  0  0  0  0  0  0  0  0
   -3.3530    0.3263    1.6988 H   0  0  0  0  0  0  0  0  0  0  0  0
   -4.4068    0.2121    0.2650 H   0  0  0  0  0  0  0  0  0  0  0  0
   -4.8893   -0.5570    1.7672 H   0  0  0  0  0  0  0  0  0  0  0  0
   -1.8576   -1.7459    2.2524 H   0  0  0  0  0  0  0  0  0  0  0  0
   -2.4556   -3.3028    1.6150 H   0  0  0  0  0  0  0  0  0  0  0  0
   -3.4557   -2.3662    2.7144 H   0  0  0  0  0  0  0  0  0  0  0  0
    0.1473    1.1014    1.1285 H   0  0  0  0  0  0  0  0  0  0  0  0
    0.0708    2.3081   -0.1703 H   0  0  0  0  0  0  0  0  0  0  0  0
    1.5775   -1.2413    0.3696 H   0  0  0  0  0  0  0  0  0  0  0  0
    2.1694   -1.1717   -1.3012 H   0  0  0  0  0  0  0  0  0  0  0  0
    3.6032    4.2575    0.4735 H   0  0  0  0  0  0  0  0  0  0  0  0
    5.7234    0.7501   -0.6773 H   0  0  0  0  0  0  0  0  0  0  0  0
    5.8229    3.1565    0.0458 H   0  0  0  0  0  0  0  0  0  0  0  0
  1  2  2  0  0  0  0
  1  3  2  0  0  0  0
  1  4  1  0  0  0  0
  1  5  1  0  0  0  0
  4  6  1  0  0  0  0
  4  7  1  0  0  0  0
  5  8  1  0  0  0  0
  5  9  1  0  0  0  0
  6 10  1  0  0  0  0
  7 11  1  0  0  0  0
 10 12  1  0  0  0  0
 12 13  1  0  0  0  0
 13 14  2  0  0  0  0
 13 15  1  0  0  0  0
 14 16  1  0  0  0  0
 15 17  2  0  0  0  0
 16 18  2  0  0  0  0
 11 12  1  0  0  0  0
 17 18  1  0  0  0  0
  6 19  1  0  0  0  0
  6 20  1  0  0  0  0
  7 21  1  0  0  0  0
  7 22  1  0  0  0  0
  8 23  1  0  0  0  0
  8 24  1  0  0  0  0
  8 25  1  0  0  0  0
  9 26  1  0  0  0  0
  9 27  1  0  0  0  0
  9 28  1  0  0  0  0
 10 29  1  0  0  0  0
 10 30  1  0  0  0  0
 11 31  1  0  0  0  0
 11 32  1  0  0  0  0
 16 33  1  0  0  0  0
 17 34  1  0  0  0  0
 18 35  1  0  0  0  0
M  END
>  <Column 1>
CN(C)S(=O)(=O)N1CCN(c2ncccn2)CC1 ZINC000000023204

>  <Total Molweight>
271.344

>  <cLogP>
-0.2794

>  <cLogS>
-0.223

>  <H-Acceptors>
7

>  <H-Donors>
0

>  <Total Surface Area>
196.32

>  <MMFF94 Energy>
-179.36

$$$$
Compound 117
Actelion Java MolfileCreator 1.0

 19 20  0  0  0  0  0  0  0  0999 V2000
    0.5746   -0.0000    3.7807 S   0  0  0  0  0  0  0  0  0  0  0  0
    0.6758   -0.4132    2.1626 C   0  0  0  0  0  0  0  0  0  0  0  0
   -0.1613    0.2122    1.2589 N   0  0  0  0  0  0  0  0  0  0  0  0
    1.6282   -1.4414    1.6261 C   0  0  0  0  0  0  0  0  0  0  0  0
   -0.1136   -0.0967   -0.0890 C   0  0  0  0  0  0  0  0  0  0  0  0
    1.6188   -1.7315    0.3152 C   0  0  0  0  0  0  0  0  0  0  0  0
    0.7512   -1.0696   -0.5358 N   0  0  0  0  0  0  0  0  0  0  0  0
   -0.7938    0.3611   -1.2036 C   0  0  0  0  0  0  0  0  0  0  0  0
    0.5518   -1.1878   -1.8835 C   0  0  0  0  0  0  0  0  0  0  0  0
   -0.3633   -0.3487   -2.3174 N   0  0  0  0  0  0  0  0  0  0  0  0
   -1.7817    1.4241   -1.2503 C   0  0  0  0  0  0  0  0  0  0  0  0
   -3.0689    1.3283   -2.2923 S   0  0  0  0  0  0  0  0  0  0  0  0
   -1.6150    2.4948   -0.4148 N   0  0  0  0  0  0  0  0  0  0  0  0
   -0.8603    0.8570    1.6130 H   0  0  0  0  0  0  0  0  0  0  0  0
    2.2947   -1.9398    2.3209 H   0  0  0  0  0  0  0  0  0  0  0  0
    2.2745   -2.4743   -0.1218 H   0  0  0  0  0  0  0  0  0  0  0  0
    1.0976   -1.8940   -2.4943 H   0  0  0  0  0  0  0  0  0  0  0  0
   -2.2878    3.2509   -0.4532 H   0  0  0  0  0  0  0  0  0  0  0  0
   -0.7846    2.6166    0.1493 H   0  0  0  0  0  0  0  0  0  0  0  0
  1  2  2  0  0  0  0
  2  3  1  0  0  0  0
  2  4  1  0  0  0  0
  3  5  1  0  0  0  0
  4  6  2  0  0  0  0
  5  7  1  0  0  0  0
  5  8  2  0  0  0  0
  7  9  1  0  0  0  0
  8 10  1  0  0  0  0
  8 11  1  0  0  0  0
 11 12  2  0  0  0  0
 11 13  1  0  0  0  0
  6  7  1  0  0  0  0
  9 10  2  0  0  0  0
  3 14  1  0  0  0  0
  4 15  1  0  0  0  0
  6 16  1  0  0  0  0
  9 17  1  0  0  0  0
 13 18  1  0  0  0  0
 13 19  1  0  0  0  0
M  END
>  <Column 1>
NC(=S)c1ncn2ccc(=S)[nH]c12 ZINC000000023660

>  <Total Molweight>
210.285

>  <cLogP>
-0.2292

>  <cLogS>
-2.09

>  <H-Acceptors>
4

>  <H-Donors>
2

>  <Total Surface Area>
159.62

>  <MMFF94 Energy>
40.425

$$$$
Compound 118
Actelion Java MolfileCreator 1.0

 23 23  0  0  1  0  0  0  0  0999 V2000
    1.0255   -0.3155    1.9729 O   0  0  0  0  0  0  0  0  0  0  0  0
    0.9588    0.2688    0.6712 C   0  0  0  0  0  0  0  0  0  0  0  0
    0.0929   -0.6144   -0.2000 C   0  0  0  0  0  0  0  0  0  0  0  0
    0.4056    1.7148    0.7354 C   0  0  0  0  0  0  0  0  0  0  0  0
    0.3806   -0.7652   -1.5542 C   0  0  0  0  0  0  0  0  0  0  0  0
   -1.0355   -1.2804    0.2913 C   0  0  0  0  0  0  0  0  0  0  0  0
    0.4785    2.3430   -0.5482 O   0  0  0  0  0  0  0  0  0  0  0  0
    1.1982    2.5876    1.7035 C   0  0  0  0  0  0  0  0  0  0  0  0
   -0.3571   -1.5068   -2.4117 N   0  0  0  0  0  0  0  0  0  0  0  0
   -1.8098   -2.0619   -0.5636 C   0  0  0  0  0  0  0  0  0  0  0  0
   -1.4356   -2.1475   -1.8976 C   0  0  0  0  0  0  0  0  0  0  0  0
   -2.2007   -2.9376   -2.8228 C   0  0  0  0  0  0  0  0  0  0  0  0
   -2.8495   -3.5844   -3.5384 N   0  0  0  0  0  0  0  0  0  0  0  0
    1.8305    0.0259    2.3994 H   0  0  0  0  0  0  0  0  0  0  0  0
    1.9760    0.2708    0.2590 H   0  0  0  0  0  0  0  0  0  0  0  0
   -0.6425    1.7162    1.0600 H   0  0  0  0  0  0  0  0  0  0  0  0
    1.2378   -0.2710   -2.0076 H   0  0  0  0  0  0  0  0  0  0  0  0
   -1.3058   -1.2008    1.3428 H   0  0  0  0  0  0  0  0  0  0  0  0
   -0.2874    2.0353   -1.0664 H   0  0  0  0  0  0  0  0  0  0  0  0
    1.1168    2.2285    2.7335 H   0  0  0  0  0  0  0  0  0  0  0  0
    0.8343    3.6206    1.6709 H   0  0  0  0  0  0  0  0  0  0  0  0
    2.2569    2.6189    1.4235 H   0  0  0  0  0  0  0  0  0  0  0  0
   -2.6811   -2.5899   -0.1883 H   0  0  0  0  0  0  0  0  0  0  0  0
  1  2  1  0  0  0  0
  2  3  1  0  0  0  0
  2  4  1  0  0  0  0
  3  5  2  0  0  0  0
  3  6  1  0  0  0  0
  4  7  1  0  0  0  0
  4  8  1  0  0  0  0
  5  9  1  0  0  0  0
  6 10  2  0  0  0  0
  9 11  2  0  0  0  0
 11 12  1  0  0  0  0
 12 13  3  0  0  0  0
 10 11  1  0  0  0  0
  1 14  1  0  0  0  0
  2 15  1  0  0  0  0
  4 16  1  0  0  0  0
  5 17  1  0  0  0  0
  6 18  1  0  0  0  0
  7 19  1  0  0  0  0
  8 20  1  0  0  0  0
  8 21  1  0  0  0  0
  8 22  1  0  0  0  0
 10 23  1  0  0  0  0
M  END
>  <Column 1>
C[C@@H](O)[C@@H](O)c1ccc(C#N)nc1 ZINC000000023802

>  <Total Molweight>
178.19

>  <cLogP>
-0.3297

>  <cLogS>
-1.444

>  <H-Acceptors>
4

>  <H-Donors>
2

>  <Total Surface Area>
143.69

>  <MMFF94 Energy>
78.416

$$$$
Compound 119
Actelion Java MolfileCreator 1.0

 21 22  0  0  0  0  0  0  0  0999 V2000
   -1.1001   -2.2011    1.3359 N   0  0  0  0  0  0  0  0  0  0  0  0
   -0.5695   -1.1783    1.9856 C   0  0  0  0  0  0  0  0  0  0  0  0
   -1.0909   -2.1011    0.0179 C   0  0  0  0  0  0  0  0  0  0  0  0
   -0.0523   -0.1067    1.4160 N   0  0  0  0  0  0  0  0  0  0  0  0
   -0.5545   -1.2323    3.3494 N   0  0  0  0  0  0  0  0  0  0  0  0
   -0.6021   -1.0796   -0.6645 N   0  0  0  0  0  0  0  0  0  0  0  0
   -1.6281   -3.1331   -0.6958 N   0  0  0  0  0  0  0  0  0  0  0  0
   -0.0884   -0.0965    0.0817 C   0  0  0  0  0  0  0  0  0  0  0  0
    0.4746    1.0752   -0.6231 C   0  0  0  0  0  0  0  0  0  0  0  0
    1.0046    2.0910    0.1230 N   0  0  0  0  0  0  0  0  0  0  0  0
    0.4780    1.1683   -2.0152 C   0  0  0  0  0  0  0  0  0  0  0  0
    1.5099    3.1456   -0.5574 C   0  0  0  0  0  0  0  0  0  0  0  0
    0.9853    2.2273   -2.7024 N   0  0  0  0  0  0  0  0  0  0  0  0
    1.5007    3.2127   -1.9381 C   0  0  0  0  0  0  0  0  0  0  0  0
   -0.9436   -2.0398    3.8026 H   0  0  0  0  0  0  0  0  0  0  0  0
   -0.1515   -0.4555    3.8449 H   0  0  0  0  0  0  0  0  0  0  0  0
   -2.0023   -3.9143   -0.1850 H   0  0  0  0  0  0  0  0  0  0  0  0
   -1.6320   -3.0788   -1.6988 H   0  0  0  0  0  0  0  0  0  0  0  0
    0.0654    0.3803   -2.6381 H   0  0  0  0  0  0  0  0  0  0  0  0
    1.9267    3.9434    0.0466 H   0  0  0  0  0  0  0  0  0  0  0  0
    1.9097    4.0649   -2.4684 H   0  0  0  0  0  0  0  0  0  0  0  0
  1  2  2  0  0  0  0
  1  3  1  0  0  0  0
  2  4  1  0  0  0  0
  2  5  1  0  0  0  0
  3  6  2  0  0  0  0
  3  7  1  0  0  0  0
  4  8  2  0  0  0  0
  8  9  1  0  0  0  0
  9 10  2  0  0  0  0
  9 11  1  0  0  0  0
 10 12  1  0  0  0  0
 11 13  2  0  0  0  0
 12 14  2  0  0  0  0
  6  8  1  0  0  0  0
 13 14  1  0  0  0  0
  5 15  1  0  0  0  0
  5 16  1  0  0  0  0
  7 17  1  0  0  0  0
  7 18  1  0  0  0  0
 11 19  1  0  0  0  0
 12 20  1  0  0  0  0
 14 21  1  0  0  0  0
M  END
>  <Column 1>
Nc1nc(N)nc(-c2cnccn2)n1 ZINC000000023810

>  <Total Molweight>
189.182

>  <cLogP>
-0.9107

>  <cLogS>
-1.93

>  <H-Acceptors>
7

>  <H-Donors>
2

>  <Total Surface Area>
143.86

>  <MMFF94 Energy>
-145.87

$$$$
Compound 120
Actelion Java MolfileCreator 1.0

 31 32  0  0  0  0  0  0  0  0999 V2000
    0.9478    2.7664    3.1621 N   0  0  0  0  0  0  0  0  0  0  0  0
    1.2513    2.3477    1.9420 N   0  0  0  0  0  0  0  0  0  0  0  0
    0.7279    1.6470    3.8618 N   0  0  0  0  0  0  0  0  0  0  0  0
    1.1916    0.9801    1.9770 C   0  0  0  0  0  0  0  0  0  0  0  0
    0.8780    0.4915    3.1887 N   0  0  0  0  0  0  0  0  0  0  0  0
    1.5039    0.1341    0.7977 C   0  0  0  0  0  0  0  0  0  0  0  0
    0.3022   -0.2874   -0.1062 C   0  0  0  0  0  0  0  0  0  0  0  0
    0.9217   -0.9136   -1.3961 C   0  0  0  0  0  0  0  0  0  0  0  0
   -0.5352    0.9519   -0.5220 C   0  0  0  0  0  0  0  0  0  0  0  0
   -0.5690   -1.3780    0.5937 C   0  0  0  0  0  0  0  0  0  0  0  0
   -0.0865   -1.1846   -2.5139 C   0  0  0  0  0  0  0  0  0  0  0  0
   -1.5596    0.6581   -1.6180 C   0  0  0  0  0  0  0  0  0  0  0  0
   -1.3403   -0.9212    1.7440 N   0  0  0  0  0  0  0  0  0  0  0  0
   -0.9022    0.0563   -2.8535 C   0  0  0  0  0  0  0  0  0  0  0  0
    0.4668    1.6751    4.8434 H   0  0  0  0  0  0  0  0  0  0  0  0
    2.2298    0.6935    0.1911 H   0  0  0  0  0  0  0  0  0  0  0  0
    2.0383   -0.7643    1.1350 H   0  0  0  0  0  0  0  0  0  0  0  0
    1.4424   -1.8473   -1.1483 H   0  0  0  0  0  0  0  0  0  0  0  0
    1.6860   -0.2347   -1.7986 H   0  0  0  0  0  0  0  0  0  0  0  0
   -1.0599    1.3800    0.3402 H   0  0  0  0  0  0  0  0  0  0  0  0
    0.1410    1.7367   -0.8878 H   0  0  0  0  0  0  0  0  0  0  0  0
    0.0755   -2.2056    0.9154 H   0  0  0  0  0  0  0  0  0  0  0  0
   -1.2852   -1.8093   -0.1117 H   0  0  0  0  0  0  0  0  0  0  0  0
    0.4488   -1.5225   -3.4090 H   0  0  0  0  0  0  0  0  0  0  0  0
   -0.7576   -2.0033   -2.2321 H   0  0  0  0  0  0  0  0  0  0  0  0
   -2.3332   -0.0203   -1.2405 H   0  0  0  0  0  0  0  0  0  0  0  0
   -2.0693    1.5882   -1.8959 H   0  0  0  0  0  0  0  0  0  0  0  0
   -1.8317   -1.7123    2.1577 H   0  0  0  0  0  0  0  0  0  0  0  0
   -0.6995   -0.5883    2.4727 H   0  0  0  0  0  0  0  0  0  0  0  0
   -1.6689   -0.1967   -3.5945 H   0  0  0  0  0  0  0  0  0  0  0  0
   -0.2478    0.8049   -3.3171 H   0  0  0  0  0  0  0  0  0  0  0  0
  1  2  2  0  0  0  0
  1  3  1  0  0  0  0
  2  4  1  0  0  0  0
  3  5  1  0  0  0  0
  4  6  1  0  0  0  0
  6  7  1  0  0  0  0
  7  8  1  0  0  0  0
  7  9  1  0  0  0  0
  7 10  1  0  0  0  0
  8 11  1  0  0  0  0
  9 12  1  0  0  0  0
 10 13  1  0  0  0  0
 11 14  1  0  0  0  0
  4  5  2  0  0  0  0
 12 14  1  0  0  0  0
  3 15  1  0  0  0  0
  6 16  1  0  0  0  0
  6 17  1  0  0  0  0
  8 18  1  0  0  0  0
  8 19  1  0  0  0  0
  9 20  1  0  0  0  0
  9 21  1  0  0  0  0
 10 22  1  0  0  0  0
 10 23  1  0  0  0  0
 11 24  1  0  0  0  0
 11 25  1  0  0  0  0
 12 26  1  0  0  0  0
 12 27  1  0  0  0  0
 13 28  1  0  0  0  0
 13 29  1  0  0  0  0
 14 30  1  0  0  0  0
 14 31  1  0  0  0  0
M  END
>  <Column 1>
[NH3+]CC1(Cc2nn[n-]n2)CCCCC1 ZINC000000023838

>  <Total Molweight>
195.269

>  <cLogP>
0.2831

>  <cLogS>
-1.612

>  <H-Acceptors>
5

>  <H-Donors>
2

>  <Total Surface Area>
160.86

>  <MMFF94 Energy>
20.695

$$$$
Compound 121
Actelion Java MolfileCreator 1.0

 27 28  0  0  0  0  0  0  0  0999 V2000
    2.7702    0.6513    2.1994 S   0  0  0  0  0  0  0  0  0  0  0  0
    3.7306    0.2633    1.1846 O   0  0  0  0  0  0  0  0  0  0  0  0
    2.5698    2.0413    2.5570 O   0  0  0  0  0  0  0  0  0  0  0  0
    1.2234    0.1041    1.5873 C   0  0  0  0  0  0  0  0  0  0  0  0
    3.0307   -0.3107    3.6643 C   0  0  0  0  0  0  0  0  0  0  0  0
    0.3929   -0.6873    2.2332 N   0  0  0  0  0  0  0  0  0  0  0  0
    0.6845    0.4211    0.3668 N   0  0  0  0  0  0  0  0  0  0  0  0
   -0.6889   -0.9065    1.4215 N   0  0  0  0  0  0  0  0  0  0  0  0
   -0.5032   -0.2718    0.2751 C   0  0  0  0  0  0  0  0  0  0  0  0
    1.2333    1.3668   -0.5714 C   0  0  0  0  0  0  0  0  0  0  0  0
   -1.4173   -0.3292   -0.8699 C   0  0  0  0  0  0  0  0  0  0  0  0
   -0.9606   -0.3947   -2.1943 C   0  0  0  0  0  0  0  0  0  0  0  0
   -2.7895   -0.5077   -0.6355 C   0  0  0  0  0  0  0  0  0  0  0  0
   -1.8598   -0.5370   -3.2563 C   0  0  0  0  0  0  0  0  0  0  0  0
   -3.6898   -0.6495   -1.6944 C   0  0  0  0  0  0  0  0  0  0  0  0
   -3.2246   -0.6539   -3.0060 C   0  0  0  0  0  0  0  0  0  0  0  0
    3.0451   -1.3694    3.3987 H   0  0  0  0  0  0  0  0  0  0  0  0
    2.2342   -0.0972    4.3795 H   0  0  0  0  0  0  0  0  0  0  0  0
    3.9949   -0.0229    4.0888 H   0  0  0  0  0  0  0  0  0  0  0  0
    0.4251    1.8412   -1.1326 H   0  0  0  0  0  0  0  0  0  0  0  0
    1.7744    2.1505   -0.0374 H   0  0  0  0  0  0  0  0  0  0  0  0
    1.9094    0.8327   -1.2428 H   0  0  0  0  0  0  0  0  0  0  0  0
    0.1001   -0.3630   -2.4251 H   0  0  0  0  0  0  0  0  0  0  0  0
   -3.1680   -0.5290    0.3859 H   0  0  0  0  0  0  0  0  0  0  0  0
   -1.4917   -0.5762   -4.2785 H   0  0  0  0  0  0  0  0  0  0  0  0
   -4.7510   -0.7684   -1.4906 H   0  0  0  0  0  0  0  0  0  0  0  0
   -3.9229   -0.7714   -3.8307 H   0  0  0  0  0  0  0  0  0  0  0  0
  1  2  2  0  0  0  0
  1  3  2  0  0  0  0
  1  4  1  0  0  0  0
  1  5  1  0  0  0  0
  4  6  2  0  0  0  0
  4  7  1  0  0  0  0
  6  8  1  0  0  0  0
  7  9  1  0  0  0  0
  7 10  1  0  0  0  0
  9 11  1  0  0  0  0
 11 12  2  0  0  0  0
 11 13  1  0  0  0  0
 12 14  1  0  0  0  0
 13 15  2  0  0  0  0
 14 16  2  0  0  0  0
  8  9  2  0  0  0  0
 15 16  1  0  0  0  0
  5 17  1  0  0  0  0
  5 18  1  0  0  0  0
  5 19  1  0  0  0  0
 10 20  1  0  0  0  0
 10 21  1  0  0  0  0
 10 22  1  0  0  0  0
 12 23  1  0  0  0  0
 13 24  1  0  0  0  0
 14 25  1  0  0  0  0
 15 26  1  0  0  0  0
 16 27  1  0  0  0  0
M  END
>  <Column 1>
Cn1c(-c2ccccc2)nnc1S(C)(=O)=O ZINC000000024658

>  <Total Molweight>
237.282

>  <cLogP>
0.4494

>  <cLogS>
-2.56

>  <H-Acceptors>
5

>  <H-Donors>
0

>  <Total Surface Area>
172.84

>  <MMFF94 Energy>
45.397

$$$$
Compound 122
Actelion Java MolfileCreator 1.0

 27 28  0  0  0  0  0  0  0  0999 V2000
   -3.3646   -0.0000    1.0659 S   0  0  0  0  0  0  0  0  0  0  0  0
   -3.4300   -1.4483    1.0597 O   0  0  0  0  0  0  0  0  0  0  0  0
   -3.3012    0.7485    2.3055 O   0  0  0  0  0  0  0  0  0  0  0  0
   -1.8856    0.3932    0.2134 C   0  0  0  0  0  0  0  0  0  0  0  0
   -4.6515    0.6560    0.0396 C   0  0  0  0  0  0  0  0  0  0  0  0
   -1.8047    1.2002   -0.8237 N   0  0  0  0  0  0  0  0  0  0  0  0
   -0.6326   -0.0761    0.5176 N   0  0  0  0  0  0  0  0  0  0  0  0
   -0.4929    1.2457   -1.2136 N   0  0  0  0  0  0  0  0  0  0  0  0
    0.2181    0.4465   -0.4332 C   0  0  0  0  0  0  0  0  0  0  0  0
   -0.3026   -0.8686    1.6754 C   0  0  0  0  0  0  0  0  0  0  0  0
    1.6522    0.1953   -0.5981 C   0  0  0  0  0  0  0  0  0  0  0  0
    2.2310   -1.0669   -0.4247 C   0  0  0  0  0  0  0  0  0  0  0  0
    2.4612    1.2109   -1.1347 C   0  0  0  0  0  0  0  0  0  0  0  0
    1.4906   -2.1103   -0.0218 F   0  0  0  0  0  0  0  0  0  0  0  0
    3.5836   -1.2935   -0.6818 C   0  0  0  0  0  0  0  0  0  0  0  0
    3.8183    0.9936   -1.3951 C   0  0  0  0  0  0  0  0  0  0  0  0
    4.3822   -0.2578   -1.1594 C   0  0  0  0  0  0  0  0  0  0  0  0
   -4.6037    0.1798   -0.9415 H   0  0  0  0  0  0  0  0  0  0  0  0
   -4.5277    1.7374   -0.0435 H   0  0  0  0  0  0  0  0  0  0  0  0
   -5.6088    0.4295    0.5142 H   0  0  0  0  0  0  0  0  0  0  0  0
   -0.9216   -0.5594    2.5206 H   0  0  0  0  0  0  0  0  0  0  0  0
   -0.4861   -1.9191    1.4394 H   0  0  0  0  0  0  0  0  0  0  0  0
    0.7417   -0.7083    1.9514 H   0  0  0  0  0  0  0  0  0  0  0  0
    2.0331    2.1902   -1.3486 H   0  0  0  0  0  0  0  0  0  0  0  0
    3.9997   -2.2840   -0.5244 H   0  0  0  0  0  0  0  0  0  0  0  0
    4.4284    1.8008   -1.7942 H   0  0  0  0  0  0  0  0  0  0  0  0
    5.4350   -0.4304   -1.3682 H   0  0  0  0  0  0  0  0  0  0  0  0
  1  2  2  0  0  0  0
  1  3  2  0  0  0  0
  1  4  1  0  0  0  0
  1  5  1  0  0  0  0
  4  6  2  0  0  0  0
  4  7  1  0  0  0  0
  6  8  1  0  0  0  0
  7  9  1  0  0  0  0
  7 10  1  0  0  0  0
  9 11  1  0  0  0  0
 11 12  2  0  0  0  0
 11 13  1  0  0  0  0
 12 14  1  0  0  0  0
 12 15  1  0  0  0  0
 13 16  2  0  0  0  0
 15 17  2  0  0  0  0
  8  9  2  0  0  0  0
 16 17  1  0  0  0  0
  5 18  1  0  0  0  0
  5 19  1  0  0  0  0
  5 20  1  0  0  0  0
 10 21  1  0  0  0  0
 10 22  1  0  0  0  0
 10 23  1  0  0  0  0
 13 24  1  0  0  0  0
 15 25  1  0  0  0  0
 16 26  1  0  0  0  0
 17 27  1  0  0  0  0
M  END
>  <Column 1>
Cn1c(-c2ccccc2F)nnc1S(C)(=O)=O ZINC000000024661

>  <Total Molweight>
255.272

>  <cLogP>
0.5502

>  <cLogS>
-2.874

>  <H-Acceptors>
5

>  <H-Donors>
0

>  <Total Surface Area>
179.19

>  <MMFF94 Energy>
44.545

$$$$
Compound 123
Actelion Java MolfileCreator 1.0

 23 24  0  0  0  0  0  0  0  0999 V2000
    1.7326    3.4674    0.5510 O   0  0  0  0  0  0  0  0  0  0  0  0
    1.1530    2.6011   -0.0974 C   0  0  0  0  0  0  0  0  0  0  0  0
    0.6651    1.4630    0.4915 N   0  0  0  0  0  0  0  0  0  0  0  0
    0.9917    2.7256   -1.4452 N   0  0  0  0  0  0  0  0  0  0  0  0
    0.0217    0.4408   -0.2331 N   0  0  0  0  0  0  0  0  0  0  0  0
    0.2499    1.7685   -2.2367 C   0  0  0  0  0  0  0  0  0  0  0  0
   -0.3210   -0.7387    0.4435 C   0  0  0  0  0  0  0  0  0  0  0  0
    0.3338    0.3570   -1.6564 C   0  0  0  0  0  0  0  0  0  0  0  0
   -0.2551   -1.9172   -0.2217 N   0  0  0  0  0  0  0  0  0  0  0  0
   -0.7587   -0.7028    1.7711 C   0  0  0  0  0  0  0  0  0  0  0  0
   -0.5892   -3.0517    0.4343 C   0  0  0  0  0  0  0  0  0  0  0  0
   -1.1020   -1.8842    2.4286 C   0  0  0  0  0  0  0  0  0  0  0  0
   -1.0111   -3.0875    1.7488 C   0  0  0  0  0  0  0  0  0  0  0  0
    0.8633    1.3220    1.4737 H   0  0  0  0  0  0  0  0  0  0  0  0
    1.3334    3.5870   -1.8485 H   0  0  0  0  0  0  0  0  0  0  0  0
    0.6398    1.7954   -3.2586 H   0  0  0  0  0  0  0  0  0  0  0  0
   -0.7902    2.1133   -2.2564 H   0  0  0  0  0  0  0  0  0  0  0  0
    1.3435   -0.0503   -1.7919 H   0  0  0  0  0  0  0  0  0  0  0  0
   -0.3743   -0.2833   -2.1955 H   0  0  0  0  0  0  0  0  0  0  0  0
   -0.8675    0.2409    2.2948 H   0  0  0  0  0  0  0  0  0  0  0  0
   -0.5057   -3.9630   -0.1508 H   0  0  0  0  0  0  0  0  0  0  0  0
   -1.4451   -1.8571    3.4588 H   0  0  0  0  0  0  0  0  0  0  0  0
   -1.2698   -4.0257    2.2257 H   0  0  0  0  0  0  0  0  0  0  0  0
  1  2  2  0  0  0  0
  2  3  1  0  0  0  0
  2  4  1  0  0  0  0
  3  5  1  0  0  0  0
  4  6  1  0  0  0  0
  5  7  1  0  0  0  0
  5  8  1  0  0  0  0
  7  9  2  0  0  0  0
  7 10  1  0  0  0  0
  9 11  1  0  0  0  0
 10 12  2  0  0  0  0
 11 13  2  0  0  0  0
  6  8  1  0  0  0  0
 12 13  1  0  0  0  0
  3 14  1  0  0  0  0
  4 15  1  0  0  0  0
  6 16  1  0  0  0  0
  6 17  1  0  0  0  0
  8 18  1  0  0  0  0
  8 19  1  0  0  0  0
 10 20  1  0  0  0  0
 11 21  1  0  0  0  0
 12 22  1  0  0  0  0
 13 23  1  0  0  0  0
M  END
>  <Column 1>
O=C1NCCN(c2ccccn2)N1 ZINC000000025263

>  <Total Molweight>
178.194

>  <cLogP>
-0.5307

>  <cLogS>
-1.453

>  <H-Acceptors>
5

>  <H-Donors>
2

>  <Total Surface Area>
137.01

>  <MMFF94 Energy>
1.1128

$$$$
Compound 124
Actelion Java MolfileCreator 1.0

 24 25  0  0  0  0  0  0  0  0999 V2000
   -1.8088    0.7075   -3.4626 O   0  0  0  0  0  0  0  0  0  0  0  0
   -0.8428    0.4809   -2.7399 C   0  0  0  0  0  0  0  0  0  0  0  0
   -0.9623    0.3768   -1.3772 N   0  0  0  0  0  0  0  0  0  0  0  0
    0.3989    0.2960   -3.2725 N   0  0  0  0  0  0  0  0  0  0  0  0
    0.1182    0.0810   -0.5245 N   0  0  0  0  0  0  0  0  0  0  0  0
    1.5775    0.1206   -2.4552 C   0  0  0  0  0  0  0  0  0  0  0  0
   -0.1635    0.0201    0.8431 C   0  0  0  0  0  0  0  0  0  0  0  0
    1.2604   -0.5910   -1.1388 C   0  0  0  0  0  0  0  0  0  0  0  0
   -1.0461    0.9384    1.4407 C   0  0  0  0  0  0  0  0  0  0  0  0
    0.4252   -0.9362    1.6858 C   0  0  0  0  0  0  0  0  0  0  0  0
   -1.3378    0.8967    2.8084 C   0  0  0  0  0  0  0  0  0  0  0  0
    0.1360   -0.9849    3.0550 C   0  0  0  0  0  0  0  0  0  0  0  0
   -0.7473   -0.0686    3.6157 C   0  0  0  0  0  0  0  0  0  0  0  0
   -1.8916    0.4326   -0.9779 H   0  0  0  0  0  0  0  0  0  0  0  0
    0.4644    0.4115   -4.2745 H   0  0  0  0  0  0  0  0  0  0  0  0
    2.3156   -0.4413   -3.0354 H   0  0  0  0  0  0  0  0  0  0  0  0
    1.9810    1.1211   -2.2615 H   0  0  0  0  0  0  0  0  0  0  0  0
    1.0137   -1.6437   -1.3229 H   0  0  0  0  0  0  0  0  0  0  0  0
    2.1487   -0.5483   -0.4983 H   0  0  0  0  0  0  0  0  0  0  0  0
   -1.4971    1.7280    0.8437 H   0  0  0  0  0  0  0  0  0  0  0  0
    1.1068   -1.6819    1.2874 H   0  0  0  0  0  0  0  0  0  0  0  0
   -2.0199    1.6253    3.2389 H   0  0  0  0  0  0  0  0  0  0  0  0
    0.6009   -1.7432    3.6797 H   0  0  0  0  0  0  0  0  0  0  0  0
   -0.9715   -0.1042    4.6785 H   0  0  0  0  0  0  0  0  0  0  0  0
  1  2  2  0  0  0  0
  2  3  1  0  0  0  0
  2  4  1  0  0  0  0
  3  5  1  0  0  0  0
  4  6  1  0  0  0  0
  5  7  1  0  0  0  0
  5  8  1  0  0  0  0
  7  9  2  0  0  0  0
  7 10  1  0  0  0  0
  9 11  1  0  0  0  0
 10 12  2  0  0  0  0
 11 13  2  0  0  0  0
  6  8  1  0  0  0  0
 12 13  1  0  0  0  0
  3 14  1  0  0  0  0
  4 15  1  0  0  0  0
  6 16  1  0  0  0  0
  6 17  1  0  0  0  0
  8 18  1  0  0  0  0
  8 19  1  0  0  0  0
  9 20  1  0  0  0  0
 10 21  1  0  0  0  0
 11 22  1  0  0  0  0
 12 23  1  0  0  0  0
 13 24  1  0  0  0  0
M  END
>  <Column 1>
O=C1NCCN(c2ccccc2)N1 ZINC000000025267

>  <Total Molweight>
177.206

>  <cLogP>
0.1188

>  <cLogS>
-1.723

>  <H-Acceptors>
4

>  <H-Donors>
2

>  <Total Surface Area>
138.25

>  <MMFF94 Energy>
19.852

$$$$
Compound 125
Actelion Java MolfileCreator 1.0

 22 23  0  0  0  0  0  0  0  0999 V2000
   -1.4965   -1.5753   -3.2315 O   0  0  0  0  0  0  0  0  0  0  0  0
   -0.8401   -1.4407   -2.2057 C   0  0  0  0  0  0  0  0  0  0  0  0
   -0.0504   -2.4246   -1.6956 N   0  0  0  0  0  0  0  0  0  0  0  0
   -0.8583   -0.1885   -1.4426 C   0  0  0  0  0  0  0  0  0  0  0  0
    0.6720   -2.2630   -0.5558 C   0  0  0  0  0  0  0  0  0  0  0  0
   -0.1017   -0.1189   -0.3380 C   0  0  0  0  0  0  0  0  0  0  0  0
    0.6661   -1.1633    0.1261 N   0  0  0  0  0  0  0  0  0  0  0  0
    1.4132   -3.3132   -0.1484 N   0  0  0  0  0  0  0  0  0  0  0  0
   -0.1027    1.1258    0.4677 C   0  0  0  0  0  0  0  0  0  0  0  0
   -0.1308    1.0467    1.8635 C   0  0  0  0  0  0  0  0  0  0  0  0
   -0.0404    2.3942   -0.1188 C   0  0  0  0  0  0  0  0  0  0  0  0
   -0.1208    2.2191    2.6006 C   0  0  0  0  0  0  0  0  0  0  0  0
   -0.0335    3.5095    0.7045 C   0  0  0  0  0  0  0  0  0  0  0  0
   -0.0794    3.4509    2.0513 N   0  0  0  0  0  0  0  0  0  0  0  0
   -0.0268   -3.2903   -2.2061 H   0  0  0  0  0  0  0  0  0  0  0  0
   -1.4922    0.6049   -1.8115 H   0  0  0  0  0  0  0  0  0  0  0  0
    1.9618   -3.1975    0.6945 H   0  0  0  0  0  0  0  0  0  0  0  0
    1.4642   -4.1919   -0.6382 H   0  0  0  0  0  0  0  0  0  0  0  0
   -0.1597    0.0871    2.3696 H   0  0  0  0  0  0  0  0  0  0  0  0
    0.0187    2.5249   -1.1936 H   0  0  0  0  0  0  0  0  0  0  0  0
   -0.1450    2.1959    3.6862 H   0  0  0  0  0  0  0  0  0  0  0  0
    0.0152    4.5114    0.2874 H   0  0  0  0  0  0  0  0  0  0  0  0
  1  2  2  0  0  0  0
  2  3  1  0  0  0  0
  2  4  1  0  0  0  0
  3  5  1  0  0  0  0
  4  6  2  0  0  0  0
  5  7  2  0  0  0  0
  5  8  1  0  0  0  0
  6  9  1  0  0  0  0
  9 10  2  0  0  0  0
  9 11  1  0  0  0  0
 10 12  1  0  0  0  0
 11 13  2  0  0  0  0
 12 14  2  0  0  0  0
  6  7  1  0  0  0  0
 13 14  1  0  0  0  0
  3 15  1  0  0  0  0
  4 16  1  0  0  0  0
  8 17  1  0  0  0  0
  8 18  1  0  0  0  0
 10 19  1  0  0  0  0
 11 20  1  0  0  0  0
 12 21  1  0  0  0  0
 13 22  1  0  0  0  0
M  END
>  <Column 1>
Nc1nc(-c2ccncc2)cc(=O)[nH]1 ZINC000000025651

>  <Total Molweight>
188.19

>  <cLogP>
-0.5698

>  <cLogS>
-1.683

>  <H-Acceptors>
5

>  <H-Donors>
2

>  <Total Surface Area>
143.93

>  <MMFF94 Energy>
-122.04

$$$$
Compound 126
Actelion Java MolfileCreator 1.0

 19 20  0  0  0  0  0  0  0  0999 V2000
   -0.4930    2.6317    0.4930 S   0  0  0  0  0  0  0  0  0  0  0  0
   -0.3674    1.5530   -0.9617 C   0  0  0  0  0  0  0  0  0  0  0  0
    0.7361    1.7992    1.5301 C   0  0  0  0  0  0  0  0  0  0  0  0
   -0.2456    0.0971   -0.6346 C   0  0  0  0  0  0  0  0  0  0  0  0
    0.3279    0.3544    1.7932 C   0  0  0  0  0  0  0  0  0  0  0  0
   -0.4735   -0.8222   -1.7765 C   0  0  0  0  0  0  0  0  0  0  0  0
    0.0392   -0.4679    0.5553 C   0  0  0  0  0  0  0  0  0  0  0  0
   -0.7031   -0.4176   -2.9109 O   0  0  0  0  0  0  0  0  0  0  0  0
   -0.4010   -2.1508   -1.4902 N   0  0  0  0  0  0  0  0  0  0  0  0
    0.1128   -1.8284    0.7658 N   0  0  0  0  0  0  0  0  0  0  0  0
   -0.1100   -2.5984   -0.2414 C   0  0  0  0  0  0  0  0  0  0  0  0
    0.4958    1.8737   -1.5549 H   0  0  0  0  0  0  0  0  0  0  0  0
   -1.2666    1.7366   -1.5595 H   0  0  0  0  0  0  0  0  0  0  0  0
    1.7135    1.8497    1.0376 H   0  0  0  0  0  0  0  0  0  0  0  0
    0.8194    2.3407    2.4779 H   0  0  0  0  0  0  0  0  0  0  0  0
    1.1420   -0.1208    2.3562 H   0  0  0  0  0  0  0  0  0  0  0  0
   -0.5553    0.3264    2.4452 H   0  0  0  0  0  0  0  0  0  0  0  0
   -0.5609   -2.7906   -2.2536 H   0  0  0  0  0  0  0  0  0  0  0  0
   -0.0745   -3.6952   -0.1501 H   0  0  0  0  0  0  0  0  0  0  0  0
  1  2  1  0  0  0  0
  1  3  1  0  0  0  0
  2  4  1  0  0  0  0
  3  5  1  0  0  0  0
  4  6  1  0  0  0  0
  4  7  2  0  0  0  0
  6  8  2  0  0  0  0
  6  9  1  0  0  0  0
  7 10  1  0  0  0  0
  9 11  1  0  0  0  0
  5  7  1  0  0  0  0
 10 11  2  0  0  0  0
  2 12  1  0  0  0  0
  2 13  1  0  0  0  0
  3 14  1  0  0  0  0
  3 15  1  0  0  0  0
  5 16  1  0  0  0  0
  5 17  1  0  0  0  0
  9 18  1  0  0  0  0
 11 19  1  0  0  0  0
M  END
>  <Column 1>
O=c1[nH]cnc2c1CSCC2 ZINC000000025972

>  <Total Molweight>
168.22

>  <cLogP>
-0.3647

>  <cLogS>
-2.101

>  <H-Acceptors>
3

>  <H-Donors>
1

>  <Total Surface Area>
122.16

>  <MMFF94 Energy>
-54.842

$$$$
Compound 127
Actelion Java MolfileCreator 1.0

 19 20  0  0  0  0  0  0  0  0999 V2000
    0.9585   -2.7977   -1.1983 O   0  0  0  0  0  0  0  0  0  0  0  0
    0.8388   -1.6068   -0.5371 C   0  0  0  0  0  0  0  0  0  0  0  0
    1.9112   -1.1938    0.2477 C   0  0  0  0  0  0  0  0  0  0  0  0
   -0.3062   -0.8237   -0.6339 C   0  0  0  0  0  0  0  0  0  0  0  0
    3.0307   -1.9690    0.3368 O   0  0  0  0  0  0  0  0  0  0  0  0
    1.8616    0.0026    0.9472 C   0  0  0  0  0  0  0  0  0  0  0  0
   -0.3693    0.3926    0.0708 C   0  0  0  0  0  0  0  0  0  0  0  0
    0.7185    0.8030    0.8617 C   0  0  0  0  0  0  0  0  0  0  0  0
   -1.5351    1.1897   -0.0280 N   0  0  0  0  0  0  0  0  0  0  0  0
   -2.6015    0.8275   -0.7789 N   0  0  0  0  0  0  0  0  0  0  0  0
   -1.8254    2.3962    0.5576 C   0  0  0  0  0  0  0  0  0  0  0  0
   -3.4947    1.7965   -0.6378 N   0  0  0  0  0  0  0  0  0  0  0  0
   -3.0267    2.7806    0.1913 N   0  0  0  0  0  0  0  0  0  0  0  0
    0.1402   -2.9550   -1.7015 H   0  0  0  0  0  0  0  0  0  0  0  0
   -1.1388   -1.1547   -1.2495 H   0  0  0  0  0  0  0  0  0  0  0  0
    2.8405   -2.7450   -0.2277 H   0  0  0  0  0  0  0  0  0  0  0  0
    2.7086    0.3090    1.5551 H   0  0  0  0  0  0  0  0  0  0  0  0
    0.7151    1.7331    1.4230 H   0  0  0  0  0  0  0  0  0  0  0  0
   -1.1620    2.9348    1.2145 H   0  0  0  0  0  0  0  0  0  0  0  0
  1  2  1  0  0  0  0
  2  3  2  0  0  0  0
  2  4  1  0  0  0  0
  3  5  1  0  0  0  0
  3  6  1  0  0  0  0
  4  7  2  0  0  0  0
  6  8  2  0  0  0  0
  7  9  1  0  0  0  0
  9 10  1  0  0  0  0
  9 11  1  0  0  0  0
 10 12  2  0  0  0  0
 11 13  2  0  0  0  0
  7  8  1  0  0  0  0
 12 13  1  0  0  0  0
  1 14  1  0  0  0  0
  4 15  1  0  0  0  0
  5 16  1  0  0  0  0
  6 17  1  0  0  0  0
  8 18  1  0  0  0  0
 11 19  1  0  0  0  0
M  END
>  <Column 1>
Oc1ccc(-n2cnnn2)cc1O ZINC000000026357

>  <Total Molweight>
178.151

>  <cLogP>
-0.1332

>  <cLogS>
-1.323

>  <H-Acceptors>
6

>  <H-Donors>
2

>  <Total Surface Area>
131.2

>  <MMFF94 Energy>
20.451

$$$$
Compound 128
Actelion Java MolfileCreator 1.0

 24 25  0  0  0  0  0  0  0  0999 V2000
    1.1129   -2.3064   -0.6358 F   0  0  0  0  0  0  0  0  0  0  0  0
    0.0475   -1.6844   -0.1049 C   0  0  0  0  0  0  0  0  0  0  0  0
   -0.0039   -0.2937   -0.0064 C   0  0  0  0  0  0  0  0  0  0  0  0
   -1.0086   -2.4703    0.3517 C   0  0  0  0  0  0  0  0  0  0  0  0
    1.1144    0.5554   -0.4800 C   0  0  0  0  0  0  0  0  0  0  0  0
   -1.1384    0.3084    0.5565 C   0  0  0  0  0  0  0  0  0  0  0  0
   -2.1354   -1.8665    0.9113 C   0  0  0  0  0  0  0  0  0  0  0  0
    1.0740    1.8633   -0.3883 N   0  0  0  0  0  0  0  0  0  0  0  0
    2.2510    0.0523   -1.0375 N   0  0  0  0  0  0  0  0  0  0  0  0
   -2.2150   -0.4714    1.0068 C   0  0  0  0  0  0  0  0  0  0  0  0
    2.3678    2.3372   -0.9646 C   0  0  0  0  0  0  0  0  0  0  0  0
    3.1567    1.0973   -1.4020 C   0  0  0  0  0  0  0  0  0  0  0  0
   -3.4090    0.1828    1.6381 C   0  0  0  0  0  0  0  0  0  0  0  0
   -0.9452   -3.5511    0.2709 H   0  0  0  0  0  0  0  0  0  0  0  0
   -1.1817    1.3933    0.6429 H   0  0  0  0  0  0  0  0  0  0  0  0
   -2.9514   -2.4897    1.2717 H   0  0  0  0  0  0  0  0  0  0  0  0
    2.4334   -0.9331   -1.1777 H   0  0  0  0  0  0  0  0  0  0  0  0
    2.9179    2.9068   -0.2082 H   0  0  0  0  0  0  0  0  0  0  0  0
    2.1690    2.9974   -1.8153 H   0  0  0  0  0  0  0  0  0  0  0  0
    4.1047    1.0131   -0.8629 H   0  0  0  0  0  0  0  0  0  0  0  0
    3.3504    1.1032   -2.4785 H   0  0  0  0  0  0  0  0  0  0  0  0
   -3.2424    0.3082    2.7124 H   0  0  0  0  0  0  0  0  0  0  0  0
   -4.3104   -0.4207    1.4879 H   0  0  0  0  0  0  0  0  0  0  0  0
   -3.5977    1.1645    1.1911 H   0  0  0  0  0  0  0  0  0  0  0  0
  1  2  1  0  0  0  0
  2  3  2  0  0  0  0
  2  4  1  0  0  0  0
  3  5  1  0  0  0  0
  3  6  1  0  0  0  0
  4  7  2  0  0  0  0
  5  8  2  0  0  0  0
  5  9  1  0  0  0  0
  6 10  2  0  0  0  0
  8 11  1  0  0  0  0
  9 12  1  0  0  0  0
 10 13  1  0  0  0  0
  7 10  1  0  0  0  0
 11 12  1  0  0  0  0
  4 14  1  0  0  0  0
  6 15  1  0  0  0  0
  7 16  1  0  0  0  0
  9 17  1  0  0  0  0
 11 18  1  0  0  0  0
 11 19  1  0  0  0  0
 12 20  1  0  0  0  0
 12 21  1  0  0  0  0
 13 22  1  0  0  0  0
 13 23  1  0  0  0  0
 13 24  1  0  0  0  0
M  END
>  <Column 1>
Cc1ccc(F)c(C2=NCCN2)c1 ZINC000000026886

>  <Total Molweight>
178.209

>  <cLogP>
1.4752

>  <cLogS>
-2.481

>  <H-Acceptors>
2

>  <H-Donors>
1

>  <Total Surface Area>
140.32

>  <MMFF94 Energy>
34.502

$$$$
Compound 129
Actelion Java MolfileCreator 1.0

 17 18  0  0  0  0  0  0  0  0999 V2000
   -0.7974   -1.2761   -0.3189 N   0  0  0  0  0  0  0  0  0  0  0  0
   -0.1565   -0.1032   -0.0776 C   0  0  0  0  0  0  0  0  0  0  0  0
   -2.0971   -1.2239   -0.6794 C   0  0  0  0  0  0  0  0  0  0  0  0
    1.2573   -0.1900    0.3130 C   0  0  0  0  0  0  0  0  0  0  0  0
   -0.8055    1.1258   -0.1939 C   0  0  0  0  0  0  0  0  0  0  0  0
   -2.8096   -0.0465   -0.8161 C   0  0  0  0  0  0  0  0  0  0  0  0
    1.9298   -1.3521    0.4395 N   0  0  0  0  0  0  0  0  0  0  0  0
    2.1632    0.8572    0.6217 C   0  0  0  0  0  0  0  0  0  0  0  0
   -2.1490    1.1495   -0.5681 C   0  0  0  0  0  0  0  0  0  0  0  0
    3.1510   -0.9454    0.8025 N   0  0  0  0  0  0  0  0  0  0  0  0
    3.3685    0.3715    0.9330 N   0  0  0  0  0  0  0  0  0  0  0  0
   -2.5638   -2.1879   -0.8608 H   0  0  0  0  0  0  0  0  0  0  0  0
   -0.2963    2.0631   -0.0019 H   0  0  0  0  0  0  0  0  0  0  0  0
   -3.8535   -0.0621   -1.1087 H   0  0  0  0  0  0  0  0  0  0  0  0
    2.0057    1.9261    0.6343 H   0  0  0  0  0  0  0  0  0  0  0  0
   -2.6747    2.0956   -0.6649 H   0  0  0  0  0  0  0  0  0  0  0  0
    3.8937   -1.6189    0.9745 H   0  0  0  0  0  0  0  0  0  0  0  0
  1  2  2  0  0  0  0
  1  3  1  0  0  0  0
  2  4  1  0  0  0  0
  2  5  1  0  0  0  0
  3  6  2  0  0  0  0
  4  7  2  0  0  0  0
  4  8  1  0  0  0  0
  5  9  2  0  0  0  0
  7 10  1  0  0  0  0
  8 11  2  0  0  0  0
  6  9  1  0  0  0  0
 10 11  1  0  0  0  0
  3 12  1  0  0  0  0
  5 13  1  0  0  0  0
  6 14  1  0  0  0  0
  8 15  1  0  0  0  0
  9 16  1  0  0  0  0
 10 17  1  0  0  0  0
M  END
>  <Column 1>
c1ccc(-c2cn[nH]n2)nc1 ZINC000000027315

>  <Total Molweight>
146.153

>  <cLogP>
0.0391

>  <cLogS>
-0.853

>  <H-Acceptors>
4

>  <H-Donors>
1

>  <Total Surface Area>
118.87

>  <MMFF94 Energy>
56.641

$$$$
Compound 130
Actelion Java MolfileCreator 1.0

 17 18  0  0  0  0  0  0  0  0999 V2000
    0.0796    3.0290   -0.6371 N   0  0  0  0  0  0  0  0  0  0  0  0
    0.7669    2.5724    0.4302 C   0  0  0  0  0  0  0  0  0  0  0  0
   -0.6098    2.1142   -1.3488 C   0  0  0  0  0  0  0  0  0  0  0  0
    0.7945    1.2426    0.8158 C   0  0  0  0  0  0  0  0  0  0  0  0
   -0.6445    0.7623   -1.0433 C   0  0  0  0  0  0  0  0  0  0  0  0
    0.0737    0.3088    0.0658 C   0  0  0  0  0  0  0  0  0  0  0  0
    0.0915   -1.0898    0.4559 C   0  0  0  0  0  0  0  0  0  0  0  0
    0.7864   -1.5688    1.5395 N   0  0  0  0  0  0  0  0  0  0  0  0
   -0.5521   -2.1420   -0.1567 C   0  0  0  0  0  0  0  0  0  0  0  0
    0.5933   -2.8785    1.6155 N   0  0  0  0  0  0  0  0  0  0  0  0
   -0.2086   -3.2233    0.5996 N   0  0  0  0  0  0  0  0  0  0  0  0
    1.3142    3.3270    0.9881 H   0  0  0  0  0  0  0  0  0  0  0  0
   -1.1540    2.5087   -2.2024 H   0  0  0  0  0  0  0  0  0  0  0  0
    1.3704    0.9468    1.6875 H   0  0  0  0  0  0  0  0  0  0  0  0
   -1.2247    0.0953   -1.6693 H   0  0  0  0  0  0  0  0  0  0  0  0
   -1.1939   -2.2281   -1.0193 H   0  0  0  0  0  0  0  0  0  0  0  0
   -0.4694   -4.1972    0.4945 H   0  0  0  0  0  0  0  0  0  0  0  0
  1  2  2  0  0  0  0
  1  3  1  0  0  0  0
  2  4  1  0  0  0  0
  3  5  2  0  0  0  0
  4  6  2  0  0  0  0
  6  7  1  0  0  0  0
  7  8  1  0  0  0  0
  7  9  2  0  0  0  0
  8 10  2  0  0  0  0
  9 11  1  0  0  0  0
  5  6  1  0  0  0  0
 10 11  1  0  0  0  0
  2 12  1  0  0  0  0
  3 13  1  0  0  0  0
  4 14  1  0  0  0  0
  5 15  1  0  0  0  0
  9 16  1  0  0  0  0
 11 17  1  0  0  0  0
M  END
>  <Column 1>
c1cc(-c2c[nH]nn2)ccn1 ZINC000000027317

>  <Total Molweight>
146.153

>  <cLogP>
-0.0519

>  <cLogS>
-1.161

>  <H-Acceptors>
4

>  <H-Donors>
1

>  <Total Surface Area>
118.87

>  <MMFF94 Energy>
8.1992

$$$$
Compound 131
Actelion Java MolfileCreator 1.0

 26 27  0  0  0  0  0  0  0  0999 V2000
   -3.9789   -0.6488    1.1356 S   0  0  0  0  0  0  0  0  0  0  0  0
   -3.6163   -0.4175   -0.4983 N   0  0  0  0  0  0  0  0  0  0  0  0
   -2.2728   -0.5404    1.5836 C   0  0  0  0  0  0  0  0  0  0  0  0
   -2.2565   -0.2673   -0.7487 C   0  0  0  0  0  0  0  0  0  0  0  0
   -4.6472   -0.4065   -1.5050 C   0  0  0  0  0  0  0  0  0  0  0  0
   -1.9083   -0.6306    2.7456 O   0  0  0  0  0  0  0  0  0  0  0  0
   -1.5270   -0.3382    0.4416 N   0  0  0  0  0  0  0  0  0  0  0  0
   -1.7968   -0.1067   -1.8755 O   0  0  0  0  0  0  0  0  0  0  0  0
   -0.1135   -0.2120    0.4759 C   0  0  0  0  0  0  0  0  0  0  0  0
    0.5386    0.7615   -0.2926 C   0  0  0  0  0  0  0  0  0  0  0  0
    0.6612   -1.0551    1.2811 C   0  0  0  0  0  0  0  0  0  0  0  0
    1.9338    0.8888   -0.2617 C   0  0  0  0  0  0  0  0  0  0  0  0
    2.0535   -0.9247    1.3116 C   0  0  0  0  0  0  0  0  0  0  0  0
    2.6977    0.0446    0.5415 C   0  0  0  0  0  0  0  0  0  0  0  0
    4.0588    0.0615    0.6636 O   0  0  0  0  0  0  0  0  0  0  0  0
    4.7621    1.0249   -0.1107 C   0  0  0  0  0  0  0  0  0  0  0  0
   -5.1614   -1.3723   -1.5051 H   0  0  0  0  0  0  0  0  0  0  0  0
   -5.3620    0.3915   -1.2822 H   0  0  0  0  0  0  0  0  0  0  0  0
   -4.2201   -0.2330   -2.4963 H   0  0  0  0  0  0  0  0  0  0  0  0
   -0.0264    1.4404   -0.9282 H   0  0  0  0  0  0  0  0  0  0  0  0
    0.2025   -1.8279    1.8938 H   0  0  0  0  0  0  0  0  0  0  0  0
    2.3872    1.6575   -0.8788 H   0  0  0  0  0  0  0  0  0  0  0  0
    2.6407   -1.5874    1.9433 H   0  0  0  0  0  0  0  0  0  0  0  0
    4.6089    0.8585   -1.1821 H   0  0  0  0  0  0  0  0  0  0  0  0
    5.8300    0.9044    0.0955 H   0  0  0  0  0  0  0  0  0  0  0  0
    4.4805    2.0435    0.1762 H   0  0  0  0  0  0  0  0  0  0  0  0
  1  2  1  0  0  0  0
  1  3  1  0  0  0  0
  2  4  1  0  0  0  0
  2  5  1  0  0  0  0
  3  6  2  0  0  0  0
  3  7  1  0  0  0  0
  4  8  2  0  0  0  0
  7  9  1  0  0  0  0
  9 10  2  0  0  0  0
  9 11  1  0  0  0  0
 10 12  1  0  0  0  0
 11 13  2  0  0  0  0
 12 14  2  0  0  0  0
 14 15  1  0  0  0  0
 15 16  1  0  0  0  0
  4  7  1  0  0  0  0
 13 14  1  0  0  0  0
  5 17  1  0  0  0  0
  5 18  1  0  0  0  0
  5 19  1  0  0  0  0
 10 20  1  0  0  0  0
 11 21  1  0  0  0  0
 12 22  1  0  0  0  0
 13 23  1  0  0  0  0
 16 24  1  0  0  0  0
 16 25  1  0  0  0  0
 16 26  1  0  0  0  0
M  END
>  <Column 1>
COc1ccc(-n2c(=O)sn(C)c2=O)cc1 ZINC000000027363

>  <Total Molweight>
238.266

>  <cLogP>
1.902

>  <cLogS>
-3.73

>  <H-Acceptors>
5

>  <H-Donors>
0

>  <Total Surface Area>
167.87

>  <MMFF94 Energy>
-2.6115

$$$$
Compound 132
Actelion Java MolfileCreator 1.0

 29 31  0  0  1  0  0  0  0  0999 V2000
    1.0897    1.8445   -1.2574 S   0  0  0  0  0  0  0  0  0  0  0  0
    2.5805    1.9937   -1.3347 O   0  0  0  0  0  0  0  0  0  0  0  0
    0.5351    0.4051   -1.9229 N   0  0  0  0  0  0  0  0  0  0  0  0
    0.6749    1.3468    0.4693 C   0  0  0  0  0  0  0  0  0  0  0  0
   -0.8432    0.3924   -2.4508 C   0  0  0  0  0  0  0  0  0  0  0  0
    1.4236   -0.3012   -2.8655 C   0  0  0  0  0  0  0  0  0  0  0  0
    1.8519    1.3141    1.7096 S   0  0  0  0  0  0  0  0  0  0  0  0
   -0.5545    1.0283    0.8214 N   0  0  0  0  0  0  0  0  0  0  0  0
   -1.3079   -1.0297   -2.7825 C   0  0  0  0  0  0  0  0  0  0  0  0
    0.8987   -1.7026   -3.2009 C   0  0  0  0  0  0  0  0  0  0  0  0
    0.6493    0.8004    2.8292 C   0  0  0  0  0  0  0  0  0  0  0  0
   -0.5771    0.7047    2.1670 C   0  0  0  0  0  0  0  0  0  0  0  0
   -0.4305   -1.6466   -3.7305 O   0  0  0  0  0  0  0  0  0  0  0  0
    0.7800    0.5053    4.1965 C   0  0  0  0  0  0  0  0  0  0  0  0
   -1.7119    0.3003    2.8994 C   0  0  0  0  0  0  0  0  0  0  0  0
   -0.3608    0.1054    4.8993 C   0  0  0  0  0  0  0  0  0  0  0  0
   -1.5928    0.0034    4.2612 C   0  0  0  0  0  0  0  0  0  0  0  0
   -1.5424    0.8215   -1.7239 H   0  0  0  0  0  0  0  0  0  0  0  0
   -0.8890    1.0106   -3.3570 H   0  0  0  0  0  0  0  0  0  0  0  0
    1.5137    0.2849   -3.7892 H   0  0  0  0  0  0  0  0  0  0  0  0
    2.4274   -0.4103   -2.4383 H   0  0  0  0  0  0  0  0  0  0  0  0
   -2.3071   -0.9985   -3.2287 H   0  0  0  0  0  0  0  0  0  0  0  0
   -1.3660   -1.6515   -1.8808 H   0  0  0  0  0  0  0  0  0  0  0  0
    1.5376   -2.1656   -3.9596 H   0  0  0  0  0  0  0  0  0  0  0  0
    0.9090   -2.3525   -2.3174 H   0  0  0  0  0  0  0  0  0  0  0  0
    1.7409    0.5851    4.6962 H   0  0  0  0  0  0  0  0  0  0  0  0
   -2.6723    0.2220    2.3994 H   0  0  0  0  0  0  0  0  0  0  0  0
   -0.2818   -0.1282    5.9594 H   0  0  0  0  0  0  0  0  0  0  0  0
   -2.4708   -0.3087    4.8224 H   0  0  0  0  0  0  0  0  0  0  0  0
  1  2  2  0  0  0  0
  1  3  1  0  0  0  0
  1  4  1  0  0  0  0
  3  5  1  0  0  0  0
  3  6  1  0  0  0  0
  4  7  1  0  0  0  0
  4  8  2  0  0  0  0
  5  9  1  0  0  0  0
  6 10  1  0  0  0  0
  7 11  1  0  0  0  0
  8 12  1  0  0  0  0
  9 13  1  0  0  0  0
 11 14  1  0  0  0  0
 12 15  1  0  0  0  0
 14 16  2  0  0  0  0
 15 17  2  0  0  0  0
 10 13  1  0  0  0  0
 11 12  2  0  0  0  0
 16 17  1  0  0  0  0
  5 18  1  0  0  0  0
  5 19  1  0  0  0  0
  6 20  1  0  0  0  0
  6 21  1  0  0  0  0
  9 22  1  0  0  0  0
  9 23  1  0  0  0  0
 10 24  1  0  0  0  0
 10 25  1  0  0  0  0
 14 26  1  0  0  0  0
 15 27  1  0  0  0  0
 16 28  1  0  0  0  0
 17 29  1  0  0  0  0
M  END
>  <Column 1>
O=[S@](c1nc2ccccc2s1)N1CCOCC1 ZINC000000027632

>  <Total Molweight>
268.36

>  <cLogP>
1.3918

>  <cLogS>
-2.887

>  <H-Acceptors>
4

>  <H-Donors>
0

>  <Total Surface Area>
187.12

>  <MMFF94 Energy>
78.461

$$$$
Compound 133
Actelion Java MolfileCreator 1.0

 35 35  0  0  0  0  0  0  0  0999 V2000
    1.7041   -0.1548   -1.1616 O   0  0  0  0  0  0  0  0  0  0  0  0
    2.2562   -1.3870   -0.7553 N   0  0  0  0  0  0  0  0  0  0  0  0
    0.5536    0.1636   -0.4344 C   0  0  0  0  0  0  0  0  0  0  0  0
    3.3420   -1.6503   -1.4145 C   0  0  0  0  0  0  0  0  0  0  0  0
    0.1578   -0.6271    0.5572 N   0  0  0  0  0  0  0  0  0  0  0  0
   -0.0472    1.2797   -0.8290 N   0  0  0  0  0  0  0  0  0  0  0  0
    4.0702   -2.9329   -1.1087 C   0  0  0  0  0  0  0  0  0  0  0  0
    3.9288   -0.7505   -2.4738 C   0  0  0  0  0  0  0  0  0  0  0  0
   -0.9379   -0.2392    1.1869 C   0  0  0  0  0  0  0  0  0  0  0  0
   -1.1372    1.6014   -0.1495 C   0  0  0  0  0  0  0  0  0  0  0  0
   -1.6060    0.8636    0.8546 N   0  0  0  0  0  0  0  0  0  0  0  0
   -1.4099   -1.0103    2.2336 N   0  0  0  0  0  0  0  0  0  0  0  0
   -1.8183    2.7537   -0.4979 N   0  0  0  0  0  0  0  0  0  0  0  0
   -2.7118   -0.7087    2.7842 C   0  0  0  0  0  0  0  0  0  0  0  0
   -0.7988   -2.3019    2.4620 C   0  0  0  0  0  0  0  0  0  0  0  0
   -1.4350    3.4465   -1.7083 C   0  0  0  0  0  0  0  0  0  0  0  0
   -3.1066    3.0040    0.1101 C   0  0  0  0  0  0  0  0  0  0  0  0
    4.1245   -3.5422   -2.0149 H   0  0  0  0  0  0  0  0  0  0  0  0
    3.5515   -3.4971   -0.3287 H   0  0  0  0  0  0  0  0  0  0  0  0
    5.0831   -2.7009   -0.7689 H   0  0  0  0  0  0  0  0  0  0  0  0
    4.8419   -1.1901   -2.8841 H   0  0  0  0  0  0  0  0  0  0  0  0
    4.1732    0.2216   -2.0368 H   0  0  0  0  0  0  0  0  0  0  0  0
    3.2080   -0.6185   -3.2854 H   0  0  0  0  0  0  0  0  0  0  0  0
   -2.7784    0.3356    3.1106 H   0  0  0  0  0  0  0  0  0  0  0  0
   -3.5015   -0.9026    2.0497 H   0  0  0  0  0  0  0  0  0  0  0  0
   -2.9210   -1.3254    3.6653 H   0  0  0  0  0  0  0  0  0  0  0  0
    0.2851   -2.2157    2.5993 H   0  0  0  0  0  0  0  0  0  0  0  0
   -0.9997   -2.9829    1.6274 H   0  0  0  0  0  0  0  0  0  0  0  0
   -1.1925   -2.7692    3.3715 H   0  0  0  0  0  0  0  0  0  0  0  0
   -0.3696    3.7034   -1.7041 H   0  0  0  0  0  0  0  0  0  0  0  0
   -1.6510    2.8366   -2.5926 H   0  0  0  0  0  0  0  0  0  0  0  0
   -1.9832    4.3891   -1.8151 H   0  0  0  0  0  0  0  0  0  0  0  0
   -3.0432    2.9958    1.2044 H   0  0  0  0  0  0  0  0  0  0  0  0
   -3.8416    2.2568   -0.2095 H   0  0  0  0  0  0  0  0  0  0  0  0
   -3.4929    3.9895   -0.1729 H   0  0  0  0  0  0  0  0  0  0  0  0
  1  2  1  0  0  0  0
  1  3  1  0  0  0  0
  2  4  2  0  0  0  0
  3  5  2  0  0  0  0
  3  6  1  0  0  0  0
  4  7  1  0  0  0  0
  4  8  1  0  0  0  0
  5  9  1  0  0  0  0
  6 10  2  0  0  0  0
  9 11  2  0  0  0  0
  9 12  1  0  0  0  0
 10 13  1  0  0  0  0
 12 14  1  0  0  0  0
 12 15  1  0  0  0  0
 13 16  1  0  0  0  0
 13 17  1  0  0  0  0
 10 11  1  0  0  0  0
  7 18  1  0  0  0  0
  7 19  1  0  0  0  0
  7 20  1  0  0  0  0
  8 21  1  0  0  0  0
  8 22  1  0  0  0  0
  8 23  1  0  0  0  0
 14 24  1  0  0  0  0
 14 25  1  0  0  0  0
 14 26  1  0  0  0  0
 15 27  1  0  0  0  0
 15 28  1  0  0  0  0
 15 29  1  0  0  0  0
 16 30  1  0  0  0  0
 16 31  1  0  0  0  0
 16 32  1  0  0  0  0
 17 33  1  0  0  0  0
 17 34  1  0  0  0  0
 17 35  1  0  0  0  0
M  END
>  <Column 1>
CC(C)=NOc1nc(N(C)C)nc(N(C)C)n1 ZINC000000027644

>  <Total Molweight>
238.294

>  <cLogP>
1.6968

>  <cLogS>
-3.609

>  <H-Acceptors>
7

>  <H-Donors>
0

>  <Total Surface Area>
196.67

>  <MMFF94 Energy>
-161.42

$$$$
Compound 134
Actelion Java MolfileCreator 1.0

 21 23  0  0  0  0  0  0  0  0999 V2000
    3.1203    1.3129    3.6958 O   0  0  0  0  0  0  0  0  0  0  0  0
    2.0916    0.3942    3.4798 N   0  0  0  0  0  0  0  0  0  0  0  0
    3.3555    2.1144    2.5772 N   0  0  0  0  0  0  0  0  0  0  0  0
    1.6908    0.6262    2.2302 C   0  0  0  0  0  0  0  0  0  0  0  0
    2.4744    1.6919    1.6722 C   0  0  0  0  0  0  0  0  0  0  0  0
    0.6993   -0.0257    1.5604 N   0  0  0  0  0  0  0  0  0  0  0  0
    2.3091    2.1676    0.4061 N   0  0  0  0  0  0  0  0  0  0  0  0
    0.5203    0.4392    0.2886 C   0  0  0  0  0  0  0  0  0  0  0  0
    1.3072    1.4913   -0.2359 C   0  0  0  0  0  0  0  0  0  0  0  0
   -0.5556   -0.2443   -0.4856 C   0  0  0  0  0  0  0  0  0  0  0  0
   -1.3046   -1.2889    0.0990 C   0  0  0  0  0  0  0  0  0  0  0  0
   -0.8889    0.0943   -1.8124 C   0  0  0  0  0  0  0  0  0  0  0  0
   -2.3216   -1.9544   -0.5943 C   0  0  0  0  0  0  0  0  0  0  0  0
   -1.9070   -0.5700   -2.5101 C   0  0  0  0  0  0  0  0  0  0  0  0
   -2.6225   -1.5937   -1.9009 C   0  0  0  0  0  0  0  0  0  0  0  0
    1.1566    1.8535   -1.2487 H   0  0  0  0  0  0  0  0  0  0  0  0
   -1.1015   -1.6040    1.1227 H   0  0  0  0  0  0  0  0  0  0  0  0
   -0.3717    0.8836   -2.3498 H   0  0  0  0  0  0  0  0  0  0  0  0
   -2.8744   -2.7537   -0.1069 H   0  0  0  0  0  0  0  0  0  0  0  0
   -2.1389   -0.2836   -3.5334 H   0  0  0  0  0  0  0  0  0  0  0  0
   -3.4118   -2.1085   -2.4422 H   0  0  0  0  0  0  0  0  0  0  0  0
  1  2  1  0  0  0  0
  1  3  1  0  0  0  0
  2  4  2  0  0  0  0
  3  5  2  0  0  0  0
  4  6  1  0  0  0  0
  5  7  1  0  0  0  0
  6  8  2  0  0  0  0
  7  9  2  0  0  0  0
  8 10  1  0  0  0  0
 10 11  2  0  0  0  0
 10 12  1  0  0  0  0
 11 13  1  0  0  0  0
 12 14  2  0  0  0  0
 13 15  2  0  0  0  0
  4  5  1  0  0  0  0
  8  9  1  0  0  0  0
 14 15  1  0  0  0  0
  9 16  1  0  0  0  0
 11 17  1  0  0  0  0
 12 18  1  0  0  0  0
 13 19  1  0  0  0  0
 14 20  1  0  0  0  0
 15 21  1  0  0  0  0
M  END
>  <Column 1>
c1ccc(-c2cnc3nonc3n2)cc1 ZINC000000027762

>  <Total Molweight>
198.185

>  <cLogP>
1.9245

>  <cLogS>
-3.133

>  <H-Acceptors>
5

>  <H-Donors>
0

>  <Total Surface Area>
152.35

>  <MMFF94 Energy>
90.899

$$$$
Compound 135
Actelion Java MolfileCreator 1.0

 23 24  0  0  0  0  0  0  0  0999 V2000
   -1.4655   -0.1628   -4.8096 Br  0  0  0  0  0  0  0  0  0  0  0  0
   -1.3059    0.5116   -3.0507 C   0  0  0  0  0  0  0  0  0  0  0  0
   -0.6486   -0.2426   -2.0795 C   0  0  0  0  0  0  0  0  0  0  0  0
   -1.8479    1.7576   -2.7377 C   0  0  0  0  0  0  0  0  0  0  0  0
   -0.5398    0.2554   -0.7754 C   0  0  0  0  0  0  0  0  0  0  0  0
   -1.7252    2.2624   -1.4414 C   0  0  0  0  0  0  0  0  0  0  0  0
   -1.0664    1.5146   -0.4636 C   0  0  0  0  0  0  0  0  0  0  0  0
    0.1472   -0.6030    0.2142 C   0  0  0  0  0  0  0  0  0  0  0  0
   -0.8969    2.0517    0.7794 O   0  0  0  0  0  0  0  0  0  0  0  0
   -0.1527   -0.5931    1.4718 N   0  0  0  0  0  0  0  0  0  0  0  0
    0.6090   -1.4140    2.2397 N   0  0  0  0  0  0  0  0  0  0  0  0
    0.0390   -2.1683    3.1976 N   0  0  0  0  0  0  0  0  0  0  0  0
    1.9937   -1.6269    2.2825 C   0  0  0  0  0  0  0  0  0  0  0  0
    1.0167   -2.9006    3.7127 N   0  0  0  0  0  0  0  0  0  0  0  0
    2.2290   -2.5832    3.1527 N   0  0  0  0  0  0  0  0  0  0  0  0
    2.8998   -0.9212    1.5692 N   0  0  0  0  0  0  0  0  0  0  0  0
   -0.2432   -1.2185   -2.3337 H   0  0  0  0  0  0  0  0  0  0  0  0
   -2.3596    2.3457   -3.4960 H   0  0  0  0  0  0  0  0  0  0  0  0
   -2.1322    3.2445   -1.2165 H   0  0  0  0  0  0  0  0  0  0  0  0
    0.8924   -1.3030   -0.2108 H   0  0  0  0  0  0  0  0  0  0  0  0
   -1.5156    2.7897    0.9051 H   0  0  0  0  0  0  0  0  0  0  0  0
    3.8883   -1.1096    1.6991 H   0  0  0  0  0  0  0  0  0  0  0  0
    2.6644   -0.0633    1.0822 H   0  0  0  0  0  0  0  0  0  0  0  0
  1  2  1  0  0  0  0
  2  3  2  0  0  0  0
  2  4  1  0  0  0  0
  3  5  1  0  0  0  0
  4  6  2  0  0  0  0
  5  7  2  0  0  0  0
  5  8  1  0  0  0  0
  7  9  1  0  0  0  0
  8 10  2  0  0  0  0
 10 11  1  0  0  0  0
 11 12  1  0  0  0  0
 11 13  1  0  0  0  0
 12 14  2  0  0  0  0
 13 15  2  0  0  0  0
 13 16  1  0  0  0  0
  6  7  1  0  0  0  0
 14 15  1  0  0  0  0
  3 17  1  0  0  0  0
  4 18  1  0  0  0  0
  6 19  1  0  0  0  0
  8 20  1  0  0  0  0
  9 21  1  0  0  0  0
 16 22  1  0  0  0  0
 16 23  1  0  0  0  0
M  END
>  <Column 1>
Nc1nnnn1/N=C/c1cc(Br)ccc1O ZINC000000027999

>  <Total Molweight>
283.089

>  <cLogP>
1.606

>  <cLogS>
-4.325

>  <H-Acceptors>
7

>  <H-Donors>
2

>  <Total Surface Area>
176.76

>  <MMFF94 Energy>
70.497

$$$$
Compound 136
Actelion Java MolfileCreator 1.0

 30 31  0  0  0  0  0  0  0  0999 V2000
   -2.6076    1.7378   -0.5527 O   0  0  0  0  0  0  0  0  0  0  0  0
   -1.2533    1.5498   -0.6329 C   0  0  0  0  0  0  0  0  0  0  0  0
   -3.3579    0.8573    0.2782 C   0  0  0  0  0  0  0  0  0  0  0  0
   -0.5431    2.4940   -1.3914 C   0  0  0  0  0  0  0  0  0  0  0  0
   -0.5520    0.5025   -0.0293 C   0  0  0  0  0  0  0  0  0  0  0  0
   -4.8082    1.3050    0.2468 C   0  0  0  0  0  0  0  0  0  0  0  0
   -1.2273    3.5200   -1.9869 O   0  0  0  0  0  0  0  0  0  0  0  0
    0.8406    2.4061   -1.5458 C   0  0  0  0  0  0  0  0  0  0  0  0
    0.8373    0.4116   -0.1858 C   0  0  0  0  0  0  0  0  0  0  0  0
    1.5340    1.3600   -0.9397 C   0  0  0  0  0  0  0  0  0  0  0  0
    1.5521   -0.7121    0.4571 C   0  0  0  0  0  0  0  0  0  0  0  0
    2.8344   -0.8409    0.3563 N   0  0  0  0  0  0  0  0  0  0  0  0
    3.3452   -1.9451    0.9659 N   0  0  0  0  0  0  0  0  0  0  0  0
    4.5059   -1.8602    1.6409 N   0  0  0  0  0  0  0  0  0  0  0  0
    2.9177   -3.2799    0.9993 C   0  0  0  0  0  0  0  0  0  0  0  0
    4.7050   -3.0575    2.1735 N   0  0  0  0  0  0  0  0  0  0  0  0
    3.7288   -3.9433    1.7924 N   0  0  0  0  0  0  0  0  0  0  0  0
    1.8782   -3.7759    0.2910 N   0  0  0  0  0  0  0  0  0  0  0  0
   -2.9921    0.9018    1.3106 H   0  0  0  0  0  0  0  0  0  0  0  0
   -3.2923   -0.1689   -0.1007 H   0  0  0  0  0  0  0  0  0  0  0  0
   -1.0675   -0.2464    0.5613 H   0  0  0  0  0  0  0  0  0  0  0  0
   -5.4299    0.6574    0.8714 H   0  0  0  0  0  0  0  0  0  0  0  0
   -4.9012    2.3360    0.6040 H   0  0  0  0  0  0  0  0  0  0  0  0
   -5.1954    1.2863   -0.7773 H   0  0  0  0  0  0  0  0  0  0  0  0
   -0.6017    4.0961   -2.4530 H   0  0  0  0  0  0  0  0  0  0  0  0
    1.3902    3.1381   -2.1297 H   0  0  0  0  0  0  0  0  0  0  0  0
    2.6135    1.2918   -1.0576 H   0  0  0  0  0  0  0  0  0  0  0  0
    0.9228   -1.4079    1.0437 H   0  0  0  0  0  0  0  0  0  0  0  0
    1.6747   -4.7691    0.3475 H   0  0  0  0  0  0  0  0  0  0  0  0
    1.4273   -3.2695   -0.4620 H   0  0  0  0  0  0  0  0  0  0  0  0
  1  2  1  0  0  0  0
  1  3  1  0  0  0  0
  2  4  2  0  0  0  0
  2  5  1  0  0  0  0
  3  6  1  0  0  0  0
  4  7  1  0  0  0  0
  4  8  1  0  0  0  0
  5  9  2  0  0  0  0
  8 10  2  0  0  0  0
  9 11  1  0  0  0  0
 11 12  2  0  0  0  0
 12 13  1  0  0  0  0
 13 14  1  0  0  0  0
 13 15  1  0  0  0  0
 14 16  2  0  0  0  0
 15 17  2  0  0  0  0
 15 18  1  0  0  0  0
  9 10  1  0  0  0  0
 16 17  1  0  0  0  0
  3 19  1  0  0  0  0
  3 20  1  0  0  0  0
  5 21  1  0  0  0  0
  6 22  1  0  0  0  0
  6 23  1  0  0  0  0
  6 24  1  0  0  0  0
  7 25  1  0  0  0  0
  8 26  1  0  0  0  0
 10 27  1  0  0  0  0
 11 28  1  0  0  0  0
 18 29  1  0  0  0  0
 18 30  1  0  0  0  0
M  END
>  <Column 1>
CCOc1cc(/C=N/n2nnnc2N)ccc1O ZINC000000028011

>  <Total Molweight>
248.245

>  <cLogP>
1.2171

>  <cLogS>
-3.809

>  <H-Acceptors>
8

>  <H-Donors>
2

>  <Total Surface Area>
194.15

>  <MMFF94 Energy>
73.957

$$$$
Compound 137
Actelion Java MolfileCreator 1.0

 22 22  0  0  0  0  0  0  0  0999 V2000
   -0.1581    3.9589    0.7117 S   0  0  0  0  0  0  0  0  0  0  0  0
   -0.5917    2.6028   -0.1791 C   0  0  0  0  0  0  0  0  0  0  0  0
   -1.3769    2.7845   -1.3072 N   0  0  0  0  0  0  0  0  0  0  0  0
   -0.1675    1.2314    0.1956 C   0  0  0  0  0  0  0  0  0  0  0  0
   -1.8576    1.7328   -2.0996 N   0  0  0  0  0  0  0  0  0  0  0  0
    0.6135    0.4792   -0.6884 C   0  0  0  0  0  0  0  0  0  0  0  0
   -0.5338    0.6924    1.4322 C   0  0  0  0  0  0  0  0  0  0  0  0
    1.0220   -0.8132   -0.3415 C   0  0  0  0  0  0  0  0  0  0  0  0
   -0.1228   -0.5988    1.7720 C   0  0  0  0  0  0  0  0  0  0  0  0
    0.6549   -1.3570    0.8909 C   0  0  0  0  0  0  0  0  0  0  0  0
    0.9841   -2.6024    1.3501 O   0  0  0  0  0  0  0  0  0  0  0  0
    1.8046   -3.4022    0.5079 C   0  0  0  0  0  0  0  0  0  0  0  0
   -1.6016    3.7512   -1.5469 H   0  0  0  0  0  0  0  0  0  0  0  0
   -2.5598    2.0960   -2.7485 H   0  0  0  0  0  0  0  0  0  0  0  0
   -2.3613    1.0725   -1.4997 H   0  0  0  0  0  0  0  0  0  0  0  0
    0.9030    0.8965   -1.6502 H   0  0  0  0  0  0  0  0  0  0  0  0
   -1.1366    1.2637    2.1332 H   0  0  0  0  0  0  0  0  0  0  0  0
    1.6237   -1.3649   -1.0557 H   0  0  0  0  0  0  0  0  0  0  0  0
   -0.4077   -1.0181    2.7342 H   0  0  0  0  0  0  0  0  0  0  0  0
    1.2984   -3.6279   -0.4364 H   0  0  0  0  0  0  0  0  0  0  0  0
    1.9874   -4.3504    1.0224 H   0  0  0  0  0  0  0  0  0  0  0  0
    2.7749   -2.9256    0.3333 H   0  0  0  0  0  0  0  0  0  0  0  0
  1  2  2  0  0  0  0
  2  3  1  0  0  0  0
  2  4  1  0  0  0  0
  3  5  1  0  0  0  0
  4  6  2  0  0  0  0
  4  7  1  0  0  0  0
  6  8  1  0  0  0  0
  7  9  2  0  0  0  0
  8 10  2  0  0  0  0
 10 11  1  0  0  0  0
 11 12  1  0  0  0  0
  9 10  1  0  0  0  0
  3 13  1  0  0  0  0
  5 14  1  0  0  0  0
  5 15  1  0  0  0  0
  6 16  1  0  0  0  0
  7 17  1  0  0  0  0
  8 18  1  0  0  0  0
  9 19  1  0  0  0  0
 12 20  1  0  0  0  0
 12 21  1  0  0  0  0
 12 22  1  0  0  0  0
M  END
>  <Column 1>
COc1ccc(C(=S)NN)cc1 ZINC000000028271

>  <Total Molweight>
182.246

>  <cLogP>
0.6107

>  <cLogS>
-1.93

>  <H-Acceptors>
3

>  <H-Donors>
2

>  <Total Surface Area>
148.21

>  <MMFF94 Energy>
81.163

$$$$
Compound 138
Actelion Java MolfileCreator 1.0

 31 32  0  0  0  0  0  0  0  0999 V2000
   -2.0319   -0.3249    0.3249 S   0  0  0  0  0  0  0  0  0  0  0  0
   -2.4262   -1.1229    1.4670 O   0  0  0  0  0  0  0  0  0  0  0  0
   -2.9720   -0.0249   -0.7349 O   0  0  0  0  0  0  0  0  0  0  0  0
   -1.4148    1.1442    0.9046 N   0  0  0  0  0  0  0  0  0  0  0  0
   -0.6190   -1.1125   -0.4181 C   0  0  0  0  0  0  0  0  0  0  0  0
   -0.4493    1.0735    2.0370 C   0  0  0  0  0  0  0  0  0  0  0  0
   -0.9817    2.1446   -0.1109 C   0  0  0  0  0  0  0  0  0  0  0  0
   -0.3504   -0.9142   -1.7749 C   0  0  0  0  0  0  0  0  0  0  0  0
    0.1752   -1.9717    0.3457 C   0  0  0  0  0  0  0  0  0  0  0  0
   -0.2625    2.4749    2.6318 C   0  0  0  0  0  0  0  0  0  0  0  0
   -0.7730    3.5020    0.5721 C   0  0  0  0  0  0  0  0  0  0  0  0
    0.7451   -1.5512   -2.3600 C   0  0  0  0  0  0  0  0  0  0  0  0
    1.2691   -2.6056   -0.2456 C   0  0  0  0  0  0  0  0  0  0  0  0
    0.1900    3.4042    1.6339 O   0  0  0  0  0  0  0  0  0  0  0  0
    1.5572   -2.4068   -1.6029 C   0  0  0  0  0  0  0  0  0  0  0  0
    2.7510   -3.0676   -2.2283 C   0  0  0  0  0  0  0  0  0  0  0  0
    0.5138    0.7046    1.6678 H   0  0  0  0  0  0  0  0  0  0  0  0
   -0.8177    0.4025    2.8184 H   0  0  0  0  0  0  0  0  0  0  0  0
   -1.7378    2.2537   -0.8937 H   0  0  0  0  0  0  0  0  0  0  0  0
   -0.0388    1.8164   -0.5617 H   0  0  0  0  0  0  0  0  0  0  0  0
   -0.9864   -0.2727   -2.3808 H   0  0  0  0  0  0  0  0  0  0  0  0
   -0.0508   -2.1550    1.3938 H   0  0  0  0  0  0  0  0  0  0  0  0
   -1.1955    2.8478    3.0712 H   0  0  0  0  0  0  0  0  0  0  0  0
    0.4927    2.4454    3.4235 H   0  0  0  0  0  0  0  0  0  0  0  0
   -0.3938    4.2289   -0.1529 H   0  0  0  0  0  0  0  0  0  0  0  0
   -1.7144    3.8917    0.9777 H   0  0  0  0  0  0  0  0  0  0  0  0
    0.9564   -1.3856   -3.4147 H   0  0  0  0  0  0  0  0  0  0  0  0
    1.8910   -3.2659    0.3559 H   0  0  0  0  0  0  0  0  0  0  0  0
    2.9587   -4.0312   -1.7513 H   0  0  0  0  0  0  0  0  0  0  0  0
    2.5770   -3.2629   -3.2917 H   0  0  0  0  0  0  0  0  0  0  0  0
    3.6304   -2.4245   -2.1255 H   0  0  0  0  0  0  0  0  0  0  0  0
  1  2  2  0  0  0  0
  1  3  2  0  0  0  0
  1  4  1  0  0  0  0
  1  5  1  0  0  0  0
  4  6  1  0  0  0  0
  4  7  1  0  0  0  0
  5  8  2  0  0  0  0
  5  9  1  0  0  0  0
  6 10  1  0  0  0  0
  7 11  1  0  0  0  0
  8 12  1  0  0  0  0
  9 13  2  0  0  0  0
 10 14  1  0  0  0  0
 12 15  2  0  0  0  0
 15 16  1  0  0  0  0
 11 14  1  0  0  0  0
 13 15  1  0  0  0  0
  6 17  1  0  0  0  0
  6 18  1  0  0  0  0
  7 19  1  0  0  0  0
  7 20  1  0  0  0  0
  8 21  1  0  0  0  0
  9 22  1  0  0  0  0
 10 23  1  0  0  0  0
 10 24  1  0  0  0  0
 11 25  1  0  0  0  0
 11 26  1  0  0  0  0
 12 27  1  0  0  0  0
 13 28  1  0  0  0  0
 16 29  1  0  0  0  0
 16 30  1  0  0  0  0
 16 31  1  0  0  0  0
M  END
>  <Column 1>
Cc1ccc(S(=O)(=O)N2CCOCC2)cc1 ZINC000000028343

>  <Total Molweight>
241.31

>  <cLogP>
1.0463

>  <cLogS>
-1.166

>  <H-Acceptors>
4

>  <H-Donors>
0

>  <Total Surface Area>
175.94

>  <MMFF94 Energy>
28.358

$$$$
Compound 139
Actelion Java MolfileCreator 1.0

 25 26  0  0  0  0  0  0  0  0999 V2000
    3.4880   -3.0912   -1.9807 O   0  0  0  0  0  0  0  0  0  0  0  0
    3.9986   -2.0305   -1.6000 N   0  0  0  0  0  0  0  0  0  0  0  0
    5.1949   -1.7300   -1.6440 O   0  0  0  0  0  0  0  0  0  0  0  0
    3.1078   -1.0561   -1.0541 C   0  0  0  0  0  0  0  0  0  0  0  0
    3.4135    0.2076   -0.5534 C   0  0  0  0  0  0  0  0  0  0  0  0
    1.7422   -1.1752   -0.9018 C   0  0  0  0  0  0  0  0  0  0  0  0
    2.3280    0.8452   -0.1134 N   0  0  0  0  0  0  0  0  0  0  0  0
    1.2714    0.0042   -0.3367 N   0  0  0  0  0  0  0  0  0  0  0  0
   -0.0832    0.3030   -0.0131 C   0  0  0  0  0  0  0  0  0  0  0  0
   -0.3985    1.4712    0.5829 C   0  0  0  0  0  0  0  0  0  0  0  0
   -1.1752   -0.6413   -0.3789 C   0  0  0  0  0  0  0  0  0  0  0  0
   -1.5858    2.0262    0.9936 N   0  0  0  0  0  0  0  0  0  0  0  0
   -2.3509   -0.7524    0.1347 N   0  0  0  0  0  0  0  0  0  0  0  0
   -2.9312    1.5004    0.9113 C   0  0  0  0  0  0  0  0  0  0  0  0
   -2.9658    0.0159    1.2424 C   0  0  0  0  0  0  0  0  0  0  0  0
    4.3794    0.6962   -0.4829 H   0  0  0  0  0  0  0  0  0  0  0  0
    1.0960   -2.0051   -1.1453 H   0  0  0  0  0  0  0  0  0  0  0  0
    0.4164    2.1656    0.8162 H   0  0  0  0  0  0  0  0  0  0  0  0
   -0.9651   -1.3362   -1.2079 H   0  0  0  0  0  0  0  0  0  0  0  0
   -1.5086    2.9796    1.3641 H   0  0  0  0  0  0  0  0  0  0  0  0
   -2.9638   -1.4711   -0.2644 H   0  0  0  0  0  0  0  0  0  0  0  0
   -3.3394    1.6969   -0.0874 H   0  0  0  0  0  0  0  0  0  0  0  0
   -3.5575    2.0418    1.6290 H   0  0  0  0  0  0  0  0  0  0  0  0
   -2.4268   -0.2328    2.1624 H   0  0  0  0  0  0  0  0  0  0  0  0
   -3.9992   -0.3333    1.3287 H   0  0  0  0  0  0  0  0  0  0  0  0
  1  2  2  0  0  0  0
  2  3  1  0  0  0  0
  2  4  1  0  0  0  0
  4  5  1  0  0  0  0
  4  6  2  0  0  0  0
  5  7  2  0  0  0  0
  6  8  1  0  0  0  0
  8  9  1  0  0  0  0
  9 10  2  0  0  0  0
  9 11  1  0  0  0  0
 10 12  1  0  0  0  0
 11 13  2  0  0  0  0
 12 14  1  0  0  0  0
 13 15  1  0  0  0  0
  7  8  1  0  0  0  0
 14 15  1  0  0  0  0
  5 16  1  0  0  0  0
  6 17  1  0  0  0  0
 10 18  1  0  0  0  0
 11 19  1  0  0  0  0
 12 20  1  0  0  0  0
 13 21  1  0  0  0  0
 14 22  1  0  0  0  0
 14 23  1  0  0  0  0
 15 24  1  0  0  0  0
 15 25  1  0  0  0  0
M  CHG  3   2   1   3  -1  13   1
M  END
>  <Column 1>
O=[N+]([O-])c1cnn(C2=CNCC[NH+]=C2)c1 ZINC000000028377

>  <Total Molweight>
208.2

>  <cLogP>
-1.5045

>  <cLogS>
-1.647

>  <H-Acceptors>
5

>  <H-Donors>
2

>  <Total Surface Area>
148.33

>  <MMFF94 Energy>
74.723

$$$$
Compound 140
Actelion Java MolfileCreator 1.0

 25 26  0  0  0  0  0  0  0  0999 V2000
   -0.2378   -1.4273    1.5859 O   0  0  0  0  0  0  0  0  0  0  0  0
    0.8698   -0.7212    1.1940 C   0  0  0  0  0  0  0  0  0  0  0  0
   -0.0933   -2.3269    2.6791 C   0  0  0  0  0  0  0  0  0  0  0  0
    0.7116    0.1640    0.1124 C   0  0  0  0  0  0  0  0  0  0  0  0
    2.1287   -0.8275    1.7970 C   0  0  0  0  0  0  0  0  0  0  0  0
    1.7957    0.9234   -0.3501 C   0  0  0  0  0  0  0  0  0  0  0  0
   -0.6090    0.3031   -0.5518 C   0  0  0  0  0  0  0  0  0  0  0  0
    3.2073   -0.0677    1.3319 C   0  0  0  0  0  0  0  0  0  0  0  0
    3.0421    0.8060    0.2609 C   0  0  0  0  0  0  0  0  0  0  0  0
   -0.7790    1.1114   -1.5491 N   0  0  0  0  0  0  0  0  0  0  0  0
   -2.0253    1.1801   -2.1036 N   0  0  0  0  0  0  0  0  0  0  0  0
   -2.3384    1.9942   -3.1622 C   0  0  0  0  0  0  0  0  0  0  0  0
   -3.2077    0.5435   -1.8202 C   0  0  0  0  0  0  0  0  0  0  0  0
   -3.6022    1.8640   -3.4939 N   0  0  0  0  0  0  0  0  0  0  0  0
   -4.1553    0.9416   -2.6409 N   0  0  0  0  0  0  0  0  0  0  0  0
    0.6243   -3.1199    2.4451 H   0  0  0  0  0  0  0  0  0  0  0  0
   -1.0651   -2.7988    2.8529 H   0  0  0  0  0  0  0  0  0  0  0  0
    0.1860   -1.7942    3.5940 H   0  0  0  0  0  0  0  0  0  0  0  0
    2.3098   -1.4936    2.6346 H   0  0  0  0  0  0  0  0  0  0  0  0
    1.6755    1.6084   -1.1863 H   0  0  0  0  0  0  0  0  0  0  0  0
   -1.4190   -0.3208   -0.1409 H   0  0  0  0  0  0  0  0  0  0  0  0
    4.1803   -0.1598    1.8095 H   0  0  0  0  0  0  0  0  0  0  0  0
    3.8821    1.3954   -0.0986 H   0  0  0  0  0  0  0  0  0  0  0  0
   -1.6113    2.6398   -3.6294 H   0  0  0  0  0  0  0  0  0  0  0  0
   -3.3367   -0.1814   -1.0331 H   0  0  0  0  0  0  0  0  0  0  0  0
  1  2  1  0  0  0  0
  1  3  1  0  0  0  0
  2  4  2  0  0  0  0
  2  5  1  0  0  0  0
  4  6  1  0  0  0  0
  4  7  1  0  0  0  0
  5  8  2  0  0  0  0
  6  9  2  0  0  0  0
  7 10  2  0  0  0  0
 10 11  1  0  0  0  0
 11 12  1  0  0  0  0
 11 13  1  0  0  0  0
 12 14  2  0  0  0  0
 13 15  2  0  0  0  0
  8  9  1  0  0  0  0
 14 15  1  0  0  0  0
  3 16  1  0  0  0  0
  3 17  1  0  0  0  0
  3 18  1  0  0  0  0
  5 19  1  0  0  0  0
  6 20  1  0  0  0  0
  7 21  1  0  0  0  0
  8 22  1  0  0  0  0
  9 23  1  0  0  0  0
 12 24  1  0  0  0  0
 13 25  1  0  0  0  0
M  END
>  <Column 1>
COc1ccccc1/C=N/n1cnnc1 ZINC000000028582

>  <Total Molweight>
202.216

>  <cLogP>
1.1583

>  <cLogS>
-4.328

>  <H-Acceptors>
5

>  <H-Donors>
0

>  <Total Surface Area>
166.76

>  <MMFF94 Energy>
55.22

$$$$
Compound 141
Actelion Java MolfileCreator 1.0

 21 22  0  0  0  0  0  0  0  0999 V2000
    1.5477   -0.7329   -0.0000 S   0  0  0  0  0  0  0  0  0  0  0  0
   -0.1500   -0.6800   -0.1976 C   0  0  0  0  0  0  0  0  0  0  0  0
    1.6253   -2.3814   -0.4487 C   0  0  0  0  0  0  0  0  0  0  0  0
   -0.6481   -1.9038   -0.6001 C   0  0  0  0  0  0  0  0  0  0  0  0
   -0.9028    0.5326    0.0456 C   0  0  0  0  0  0  0  0  0  0  0  0
    0.3764   -2.8851   -0.7449 C   0  0  0  0  0  0  0  0  0  0  0  0
    2.9408   -3.0809   -0.4787 C   0  0  0  0  0  0  0  0  0  0  0  0
   -0.3323    1.6291    0.4219 N   0  0  0  0  0  0  0  0  0  0  0  0
   -1.1217    2.7204    0.6267 N   0  0  0  0  0  0  0  0  0  0  0  0
   -0.6371    3.9398    1.0265 C   0  0  0  0  0  0  0  0  0  0  0  0
   -2.4741    2.9264    0.5149 C   0  0  0  0  0  0  0  0  0  0  0  0
   -1.6117    4.8116    1.1471 N   0  0  0  0  0  0  0  0  0  0  0  0
   -2.7793    4.1678    0.8221 N   0  0  0  0  0  0  0  0  0  0  0  0
   -1.6983   -2.0964   -0.7850 H   0  0  0  0  0  0  0  0  0  0  0  0
   -1.9905    0.4388   -0.1165 H   0  0  0  0  0  0  0  0  0  0  0  0
    0.2030   -3.9101   -1.0516 H   0  0  0  0  0  0  0  0  0  0  0  0
    2.8209   -4.1256   -0.7842 H   0  0  0  0  0  0  0  0  0  0  0  0
    3.4075   -3.0732    0.5118 H   0  0  0  0  0  0  0  0  0  0  0  0
    3.6203   -2.6000   -1.1900 H   0  0  0  0  0  0  0  0  0  0  0  0
    0.4125    4.1148    1.2064 H   0  0  0  0  0  0  0  0  0  0  0  0
   -3.1865    2.1746    0.2168 H   0  0  0  0  0  0  0  0  0  0  0  0
  1  2  1  0  0  0  0
  1  3  1  0  0  0  0
  2  4  2  0  0  0  0
  2  5  1  0  0  0  0
  3  6  2  0  0  0  0
  3  7  1  0  0  0  0
  5  8  2  0  0  0  0
  8  9  1  0  0  0  0
  9 10  1  0  0  0  0
  9 11  1  0  0  0  0
 10 12  2  0  0  0  0
 11 13  2  0  0  0  0
  4  6  1  0  0  0  0
 12 13  1  0  0  0  0
  4 14  1  0  0  0  0
  5 15  1  0  0  0  0
  6 16  1  0  0  0  0
  7 17  1  0  0  0  0
  7 18  1  0  0  0  0
  7 19  1  0  0  0  0
 10 20  1  0  0  0  0
 11 21  1  0  0  0  0
M  END
>  <Column 1>
Cc1ccc(/C=N/n2cnnc2)s1 ZINC000000028584

>  <Total Molweight>
192.246

>  <cLogP>
1.521

>  <cLogS>
-4.774

>  <H-Acceptors>
4

>  <H-Donors>
0

>  <Total Surface Area>
152.7

>  <MMFF94 Energy>
27.716

$$$$
Compound 142
Actelion Java MolfileCreator 1.0

 31 31  0  0  0  0  0  0  0  0999 V2000
    3.0558   -2.2510   -3.2973 S   0  0  0  0  0  0  0  0  0  0  0  0
    3.8155   -3.4826   -3.3593 O   0  0  0  0  0  0  0  0  0  0  0  0
    1.9921   -1.9791   -4.2394 O   0  0  0  0  0  0  0  0  0  0  0  0
    2.4403   -2.1595   -1.7131 N   0  0  0  0  0  0  0  0  0  0  0  0
    4.1953   -0.8861   -3.2897 C   0  0  0  0  0  0  0  0  0  0  0  0
    1.4692   -1.0889   -1.3963 N   0  0  0  0  0  0  0  0  0  0  0  0
    0.8935   -1.2221   -0.2447 C   0  0  0  0  0  0  0  0  0  0  0  0
   -0.1140   -0.2594    0.2406 C   0  0  0  0  0  0  0  0  0  0  0  0
   -0.6530   -0.4356    1.5188 C   0  0  0  0  0  0  0  0  0  0  0  0
   -0.5252    0.8069   -0.5595 C   0  0  0  0  0  0  0  0  0  0  0  0
   -1.6103    0.4639    2.0024 C   0  0  0  0  0  0  0  0  0  0  0  0
   -1.4803    1.7068   -0.0820 C   0  0  0  0  0  0  0  0  0  0  0  0
   -2.1966    0.3792    3.2414 O   0  0  0  0  0  0  0  0  0  0  0  0
   -2.0278    1.5446    1.1955 C   0  0  0  0  0  0  0  0  0  0  0  0
   -1.8259   -0.7033    4.0821 C   0  0  0  0  0  0  0  0  0  0  0  0
   -2.9686    2.3787    1.7468 O   0  0  0  0  0  0  0  0  0  0  0  0
   -3.4333    3.4636    0.9565 C   0  0  0  0  0  0  0  0  0  0  0  0
    2.3094   -3.0962   -1.3217 H   0  0  0  0  0  0  0  0  0  0  0  0
    3.6398    0.0411   -3.1380 H   0  0  0  0  0  0  0  0  0  0  0  0
    4.9286   -1.0402   -2.4961 H   0  0  0  0  0  0  0  0  0  0  0  0
    4.6974   -0.8625   -4.2591 H   0  0  0  0  0  0  0  0  0  0  0  0
    1.1424   -2.0666    0.4218 H   0  0  0  0  0  0  0  0  0  0  0  0
   -0.3166   -1.2719    2.1209 H   0  0  0  0  0  0  0  0  0  0  0  0
   -0.1123    0.9446   -1.5568 H   0  0  0  0  0  0  0  0  0  0  0  0
   -1.7757    2.5231   -0.7330 H   0  0  0  0  0  0  0  0  0  0  0  0
   -2.0829   -1.6644    3.6250 H   0  0  0  0  0  0  0  0  0  0  0  0
   -2.3951   -0.6150    5.0124 H   0  0  0  0  0  0  0  0  0  0  0  0
   -0.7623   -0.6578    4.3376 H   0  0  0  0  0  0  0  0  0  0  0  0
   -2.6203    4.1591    0.7238 H   0  0  0  0  0  0  0  0  0  0  0  0
   -4.1789    4.0093    1.5429 H   0  0  0  0  0  0  0  0  0  0  0  0
   -3.9239    3.1072    0.0449 H   0  0  0  0  0  0  0  0  0  0  0  0
  1  2  2  0  0  0  0
  1  3  2  0  0  0  0
  1  4  1  0  0  0  0
  1  5  1  0  0  0  0
  4  6  1  0  0  0  0
  6  7  2  0  0  0  0
  7  8  1  0  0  0  0
  8  9  2  0  0  0  0
  8 10  1  0  0  0  0
  9 11  1  0  0  0  0
 10 12  2  0  0  0  0
 11 13  1  0  0  0  0
 11 14  2  0  0  0  0
 13 15  1  0  0  0  0
 14 16  1  0  0  0  0
 16 17  1  0  0  0  0
 12 14  1  0  0  0  0
  4 18  1  0  0  0  0
  5 19  1  0  0  0  0
  5 20  1  0  0  0  0
  5 21  1  0  0  0  0
  7 22  1  0  0  0  0
  9 23  1  0  0  0  0
 10 24  1  0  0  0  0
 12 25  1  0  0  0  0
 15 26  1  0  0  0  0
 15 27  1  0  0  0  0
 15 28  1  0  0  0  0
 17 29  1  0  0  0  0
 17 30  1  0  0  0  0
 17 31  1  0  0  0  0
M  END
>  <Column 1>
COc1ccc(/C=N/NS(C)(=O)=O)cc1OC ZINC000000029079

>  <Total Molweight>
258.297

>  <cLogP>
0.8867

>  <cLogS>
-1.706

>  <H-Acceptors>
6

>  <H-Donors>
1

>  <Total Surface Area>
194.84

>  <MMFF94 Energy>
62.001

$$$$
Compound 143
Actelion Java MolfileCreator 1.0

 27 27  0  0  0  0  0  0  0  0999 V2000
   -1.9289   -1.4464   -0.7230 S   0  0  0  0  0  0  0  0  0  0  0  0
   -2.9706   -0.6064   -1.2764 O   0  0  0  0  0  0  0  0  0  0  0  0
   -2.2543   -2.6104    0.0741 O   0  0  0  0  0  0  0  0  0  0  0  0
   -0.9085   -1.9364   -1.9940 N   0  0  0  0  0  0  0  0  0  0  0  0
   -0.8742   -0.4029    0.2638 C   0  0  0  0  0  0  0  0  0  0  0  0
   -0.5128   -0.9044   -2.9668 C   0  0  0  0  0  0  0  0  0  0  0  0
    0.1844   -2.8625   -1.6528 C   0  0  0  0  0  0  0  0  0  0  0  0
   -0.1286   -0.9588    1.3048 C   0  0  0  0  0  0  0  0  0  0  0  0
   -0.8478    0.9751    0.0307 C   0  0  0  0  0  0  0  0  0  0  0  0
    0.6779   -0.1298    2.0865 C   0  0  0  0  0  0  0  0  0  0  0  0
   -0.0384    1.7981    0.8208 C   0  0  0  0  0  0  0  0  0  0  0  0
    0.7303    1.2481    1.8493 C   0  0  0  0  0  0  0  0  0  0  0  0
    1.5609    1.9379    2.6885 O   0  0  0  0  0  0  0  0  0  0  0  0
    1.6083    3.3506    2.5314 C   0  0  0  0  0  0  0  0  0  0  0  0
   -1.3690   -0.2961   -3.2706 H   0  0  0  0  0  0  0  0  0  0  0  0
    0.2686   -0.2574   -2.5589 H   0  0  0  0  0  0  0  0  0  0  0  0
   -0.1273   -1.3828   -3.8731 H   0  0  0  0  0  0  0  0  0  0  0  0
   -0.1651   -3.6658   -0.9988 H   0  0  0  0  0  0  0  0  0  0  0  0
    1.0128   -2.3345   -1.1725 H   0  0  0  0  0  0  0  0  0  0  0  0
    0.5599   -3.3381   -2.5648 H   0  0  0  0  0  0  0  0  0  0  0  0
   -0.1724   -2.0243    1.5173 H   0  0  0  0  0  0  0  0  0  0  0  0
   -1.4561    1.4160   -0.7563 H   0  0  0  0  0  0  0  0  0  0  0  0
    1.2645   -0.5575    2.8968 H   0  0  0  0  0  0  0  0  0  0  0  0
   -0.0366    2.8632    0.6126 H   0  0  0  0  0  0  0  0  0  0  0  0
    2.0003    3.6243    1.5465 H   0  0  0  0  0  0  0  0  0  0  0  0
    2.2949    3.7480    3.2851 H   0  0  0  0  0  0  0  0  0  0  0  0
    0.6254    3.8010    2.7057 H   0  0  0  0  0  0  0  0  0  0  0  0
  1  2  2  0  0  0  0
  1  3  2  0  0  0  0
  1  4  1  0  0  0  0
  1  5  1  0  0  0  0
  4  6  1  0  0  0  0
  4  7  1  0  0  0  0
  5  8  2  0  0  0  0
  5  9  1  0  0  0  0
  8 10  1  0  0  0  0
  9 11  2  0  0  0  0
 10 12  2  0  0  0  0
 12 13  1  0  0  0  0
 13 14  1  0  0  0  0
 11 12  1  0  0  0  0
  6 15  1  0  0  0  0
  6 16  1  0  0  0  0
  6 17  1  0  0  0  0
  7 18  1  0  0  0  0
  7 19  1  0  0  0  0
  7 20  1  0  0  0  0
  8 21  1  0  0  0  0
  9 22  1  0  0  0  0
 10 23  1  0  0  0  0
 11 24  1  0  0  0  0
 14 25  1  0  0  0  0
 14 26  1  0  0  0  0
 14 27  1  0  0  0  0
M  END
>  <Column 1>
COc1ccc(S(=O)(=O)N(C)C)cc1 ZINC000000029190

>  <Total Molweight>
215.272

>  <cLogP>
0.8082

>  <cLogS>
-0.773

>  <H-Acceptors>
4

>  <H-Donors>
0

>  <Total Surface Area>
158.92

>  <MMFF94 Energy>
-16.669

$$$$
Compound 144
Actelion Java MolfileCreator 1.0

 29 29  0  0  0  0  0  0  0  0999 V2000
   -1.6311   -1.3047   -0.4076 S   0  0  0  0  0  0  0  0  0  0  0  0
   -2.8648   -0.6241   -0.7309 O   0  0  0  0  0  0  0  0  0  0  0  0
   -1.6368   -2.6154    0.2047 O   0  0  0  0  0  0  0  0  0  0  0  0
   -0.7301   -1.4569   -1.8477 N   0  0  0  0  0  0  0  0  0  0  0  0
   -0.6769   -0.1939    0.5834 C   0  0  0  0  0  0  0  0  0  0  0  0
    0.4192   -2.4091   -1.7953 C   0  0  0  0  0  0  0  0  0  0  0  0
   -1.6019   -1.6766   -3.0414 C   0  0  0  0  0  0  0  0  0  0  0  0
   -0.2335   -0.5819    1.8473 C   0  0  0  0  0  0  0  0  0  0  0  0
   -0.4054    1.0872    0.0938 C   0  0  0  0  0  0  0  0  0  0  0  0
    1.5064   -2.0428   -0.8704 C   0  0  0  0  0  0  0  0  0  0  0  0
   -1.9411   -0.4032   -3.7075 C   0  0  0  0  0  0  0  0  0  0  0  0
    0.5038    0.3210    2.6157 C   0  0  0  0  0  0  0  0  0  0  0  0
    0.3336    1.9836    0.8720 C   0  0  0  0  0  0  0  0  0  0  0  0
    2.3843   -1.7733   -0.1608 N   0  0  0  0  0  0  0  0  0  0  0  0
   -2.1716    0.5945   -4.2551 N   0  0  0  0  0  0  0  0  0  0  0  0
    0.7935    1.6030    2.1350 C   0  0  0  0  0  0  0  0  0  0  0  0
    1.5195    2.3816    2.9937 O   0  0  0  0  0  0  0  0  0  0  0  0
    1.8936    3.6732    2.5317 C   0  0  0  0  0  0  0  0  0  0  0  0
    0.8655   -2.4569   -2.7972 H   0  0  0  0  0  0  0  0  0  0  0  0
    0.0536   -3.4196   -1.5795 H   0  0  0  0  0  0  0  0  0  0  0  0
   -2.5087   -2.2286   -2.7685 H   0  0  0  0  0  0  0  0  0  0  0  0
   -1.0878   -2.3138   -3.7709 H   0  0  0  0  0  0  0  0  0  0  0  0
   -0.4469   -1.5719    2.2425 H   0  0  0  0  0  0  0  0  0  0  0  0
   -0.7709    1.3985   -0.8828 H   0  0  0  0  0  0  0  0  0  0  0  0
    0.8616    0.0242    3.5992 H   0  0  0  0  0  0  0  0  0  0  0  0
    0.5279    2.9715    0.4669 H   0  0  0  0  0  0  0  0  0  0  0  0
    2.5172    3.6073    1.6340 H   0  0  0  0  0  0  0  0  0  0  0  0
    2.4892    4.1495    3.3164 H   0  0  0  0  0  0  0  0  0  0  0  0
    1.0124    4.2992    2.3568 H   0  0  0  0  0  0  0  0  0  0  0  0
  1  2  2  0  0  0  0
  1  3  2  0  0  0  0
  1  4  1  0  0  0  0
  1  5  1  0  0  0  0
  4  6  1  0  0  0  0
  4  7  1  0  0  0  0
  5  8  2  0  0  0  0
  5  9  1  0  0  0  0
  6 10  1  0  0  0  0
  7 11  1  0  0  0  0
  8 12  1  0  0  0  0
  9 13  2  0  0  0  0
 10 14  3  0  0  0  0
 11 15  3  0  0  0  0
 12 16  2  0  0  0  0
 16 17  1  0  0  0  0
 17 18  1  0  0  0  0
 13 16  1  0  0  0  0
  6 19  1  0  0  0  0
  6 20  1  0  0  0  0
  7 21  1  0  0  0  0
  7 22  1  0  0  0  0
  8 23  1  0  0  0  0
  9 24  1  0  0  0  0
 12 25  1  0  0  0  0
 13 26  1  0  0  0  0
 18 27  1  0  0  0  0
 18 28  1  0  0  0  0
 18 29  1  0  0  0  0
M  END
>  <Column 1>
COc1ccc(S(=O)(=O)N(CC#N)CC#N)cc1 ZINC000000029431

>  <Total Molweight>
265.292

>  <cLogP>
0.112

>  <cLogS>
-1.669

>  <H-Acceptors>
6

>  <H-Donors>
0

>  <Total Surface Area>
205.34

>  <MMFF94 Energy>
-23.983

$$$$
Compound 145
Actelion Java MolfileCreator 1.0

 25 25  0  0  0  0  0  0  0  0999 V2000
    0.3307    0.9097    1.1580 S   0  0  0  0  0  0  0  0  0  0  0  0
   -0.7024    1.2469    2.1078 O   0  0  0  0  0  0  0  0  0  0  0  0
    1.6402    1.5229    1.2114 O   0  0  0  0  0  0  0  0  0  0  0  0
    0.5941   -0.7660    1.2240 N   0  0  0  0  0  0  0  0  0  0  0  0
   -0.3431    1.1337   -0.4671 C   0  0  0  0  0  0  0  0  0  0  0  0
    1.7314   -1.2363    0.3823 C   0  0  0  0  0  0  0  0  0  0  0  0
    0.6333   -1.2890    2.6249 C   0  0  0  0  0  0  0  0  0  0  0  0
    0.3136    1.9511   -1.3937 C   0  0  0  0  0  0  0  0  0  0  0  0
   -1.5369    0.4807   -0.7991 C   0  0  0  0  0  0  0  0  0  0  0  0
    1.6172   -2.6651    0.0283 C   0  0  0  0  0  0  0  0  0  0  0  0
   -0.7016   -1.7195    3.0879 C   0  0  0  0  0  0  0  0  0  0  0  0
   -0.2288    2.1054   -2.6701 C   0  0  0  0  0  0  0  0  0  0  0  0
   -2.0703    0.6412   -2.0779 C   0  0  0  0  0  0  0  0  0  0  0  0
    1.5365   -3.7954   -0.2220 N   0  0  0  0  0  0  0  0  0  0  0  0
   -1.7443   -2.0836    3.4464 N   0  0  0  0  0  0  0  0  0  0  0  0
   -1.4122    1.4496   -3.0007 C   0  0  0  0  0  0  0  0  0  0  0  0
   -1.9264    1.6013   -4.2275 F   0  0  0  0  0  0  0  0  0  0  0  0
    1.7722   -0.6699   -0.5540 H   0  0  0  0  0  0  0  0  0  0  0  0
    2.6755   -1.0612    0.9115 H   0  0  0  0  0  0  0  0  0  0  0  0
    1.3125   -2.1469    2.6907 H   0  0  0  0  0  0  0  0  0  0  0  0
    1.0508   -0.5359    3.3038 H   0  0  0  0  0  0  0  0  0  0  0  0
    1.2323    2.4720   -1.1331 H   0  0  0  0  0  0  0  0  0  0  0  0
   -2.0541   -0.1417   -0.0706 H   0  0  0  0  0  0  0  0  0  0  0  0
    0.2572    2.7358   -3.4089 H   0  0  0  0  0  0  0  0  0  0  0  0
   -2.9956    0.1472   -2.3602 H   0  0  0  0  0  0  0  0  0  0  0  0
  1  2  2  0  0  0  0
  1  3  2  0  0  0  0
  1  4  1  0  0  0  0
  1  5  1  0  0  0  0
  4  6  1  0  0  0  0
  4  7  1  0  0  0  0
  5  8  2  0  0  0  0
  5  9  1  0  0  0  0
  6 10  1  0  0  0  0
  7 11  1  0  0  0  0
  8 12  1  0  0  0  0
  9 13  2  0  0  0  0
 10 14  3  0  0  0  0
 11 15  3  0  0  0  0
 12 16  2  0  0  0  0
 16 17  1  0  0  0  0
 13 16  1  0  0  0  0
  6 18  1  0  0  0  0
  6 19  1  0  0  0  0
  7 20  1  0  0  0  0
  7 21  1  0  0  0  0
  8 22  1  0  0  0  0
  9 23  1  0  0  0  0
 12 24  1  0  0  0  0
 13 25  1  0  0  0  0
M  END
>  <Column 1>
N#CCN(CC#N)S(=O)(=O)c1ccc(F)cc1 ZINC000000029471

>  <Total Molweight>
253.257

>  <cLogP>
0.2828

>  <cLogS>
-1.965

>  <H-Acceptors>
5

>  <H-Donors>
0

>  <Total Surface Area>
189.43

>  <MMFF94 Energy>
-31.215

$$$$
Compound 146
Actelion Java MolfileCreator 1.0

 28 28  0  0  0  0  0  0  0  0999 V2000
   -1.8440   -2.4057   -0.8816 S   0  0  0  0  0  0  0  0  0  0  0  0
   -2.4573   -3.0899   -2.0026 O   0  0  0  0  0  0  0  0  0  0  0  0
   -0.6292   -2.9085   -0.2796 O   0  0  0  0  0  0  0  0  0  0  0  0
   -1.6340   -0.8155   -1.4083 N   0  0  0  0  0  0  0  0  0  0  0  0
   -3.0915   -2.2260    0.3743 C   0  0  0  0  0  0  0  0  0  0  0  0
   -0.4658   -0.1306   -0.9415 C   0  0  0  0  0  0  0  0  0  0  0  0
   -0.4630    0.5402    0.2925 C   0  0  0  0  0  0  0  0  0  0  0  0
    0.7007   -0.2103   -1.7066 C   0  0  0  0  0  0  0  0  0  0  0  0
   -1.6527    0.5700    0.9751 O   0  0  0  0  0  0  0  0  0  0  0  0
    0.7211    1.1460    0.7255 C   0  0  0  0  0  0  0  0  0  0  0  0
    1.8767    0.3969   -1.2606 C   0  0  0  0  0  0  0  0  0  0  0  0
   -1.6668    1.2402    2.2293 C   0  0  0  0  0  0  0  0  0  0  0  0
    1.8903    1.0772   -0.0439 C   0  0  0  0  0  0  0  0  0  0  0  0
    2.9693    1.7148    0.5063 O   0  0  0  0  0  0  0  0  0  0  0  0
    4.2005    1.6248   -0.2005 C   0  0  0  0  0  0  0  0  0  0  0  0
   -1.7900   -0.7726   -2.4155 H   0  0  0  0  0  0  0  0  0  0  0  0
   -2.6582   -1.7491    1.2529 H   0  0  0  0  0  0  0  0  0  0  0  0
   -3.9228   -1.6443   -0.0281 H   0  0  0  0  0  0  0  0  0  0  0  0
   -3.4400   -3.2265    0.6415 H   0  0  0  0  0  0  0  0  0  0  0  0
    0.7091   -0.7598   -2.6440 H   0  0  0  0  0  0  0  0  0  0  0  0
    0.7736    1.6837    1.6668 H   0  0  0  0  0  0  0  0  0  0  0  0
    2.7624    0.3110   -1.8810 H   0  0  0  0  0  0  0  0  0  0  0  0
   -0.9811    0.7655    2.9389 H   0  0  0  0  0  0  0  0  0  0  0  0
   -2.6779    1.1577    2.6397 H   0  0  0  0  0  0  0  0  0  0  0  0
   -1.4427    2.3054    2.1104 H   0  0  0  0  0  0  0  0  0  0  0  0
    4.5266    0.5837   -0.2955 H   0  0  0  0  0  0  0  0  0  0  0  0
    4.9586    2.1596    0.3797 H   0  0  0  0  0  0  0  0  0  0  0  0
    4.1282    2.1086   -1.1801 H   0  0  0  0  0  0  0  0  0  0  0  0
  1  2  2  0  0  0  0
  1  3  2  0  0  0  0
  1  4  1  0  0  0  0
  1  5  1  0  0  0  0
  4  6  1  0  0  0  0
  6  7  2  0  0  0  0
  6  8  1  0  0  0  0
  7  9  1  0  0  0  0
  7 10  1  0  0  0  0
  8 11  2  0  0  0  0
  9 12  1  0  0  0  0
 10 13  2  0  0  0  0
 13 14  1  0  0  0  0
 14 15  1  0  0  0  0
 11 13  1  0  0  0  0
  4 16  1  0  0  0  0
  5 17  1  0  0  0  0
  5 18  1  0  0  0  0
  5 19  1  0  0  0  0
  8 20  1  0  0  0  0
 10 21  1  0  0  0  0
 11 22  1  0  0  0  0
 12 23  1  0  0  0  0
 12 24  1  0  0  0  0
 12 25  1  0  0  0  0
 15 26  1  0  0  0  0
 15 27  1  0  0  0  0
 15 28  1  0  0  0  0
M  END
>  <Column 1>
COc1ccc(NS(C)(=O)=O)c(OC)c1 ZINC000000029503

>  <Total Molweight>
231.271

>  <cLogP>
0.5683

>  <cLogS>
-2.739

>  <H-Acceptors>
5

>  <H-Donors>
1

>  <Total Surface Area>
170.08

>  <MMFF94 Energy>
-18.62

$$$$
Compound 147
Actelion Java MolfileCreator 1.0

 32 33  0  0  0  0  0  0  0  0999 V2000
   -1.7056   -0.3247    3.4947 S   0  0  0  0  0  0  0  0  0  0  0  0
   -1.9267    0.8970    4.2380 O   0  0  0  0  0  0  0  0  0  0  0  0
   -2.6004   -1.4548    3.6196 O   0  0  0  0  0  0  0  0  0  0  0  0
   -1.6045    0.0751    1.8650 N   0  0  0  0  0  0  0  0  0  0  0  0
   -0.0562   -0.8914    3.8655 C   0  0  0  0  0  0  0  0  0  0  0  0
   -0.8221    1.2781    1.4692 C   0  0  0  0  0  0  0  0  0  0  0  0
   -1.5926   -1.0403    0.8800 C   0  0  0  0  0  0  0  0  0  0  0  0
    0.3649    0.9343    0.5497 C   0  0  0  0  0  0  0  0  0  0  0  0
   -1.3382   -0.5434   -0.5554 C   0  0  0  0  0  0  0  0  0  0  0  0
   -0.0625    0.1883   -0.6454 N   0  0  0  0  0  0  0  0  0  0  0  0
    0.6727    0.2293   -1.8186 C   0  0  0  0  0  0  0  0  0  0  0  0
    0.0865   -0.0319   -3.0706 C   0  0  0  0  0  0  0  0  0  0  0  0
    2.0466    0.5338   -1.8179 C   0  0  0  0  0  0  0  0  0  0  0  0
    0.8275    0.0077   -4.2577 C   0  0  0  0  0  0  0  0  0  0  0  0
    2.7965    0.5746   -2.9992 C   0  0  0  0  0  0  0  0  0  0  0  0
    2.1779    0.3106   -4.2098 C   0  0  0  0  0  0  0  0  0  0  0  0
    2.8910    0.3490   -5.3424 F   0  0  0  0  0  0  0  0  0  0  0  0
    0.1731   -1.7678    3.2585 H   0  0  0  0  0  0  0  0  0  0  0  0
   -0.0296   -1.1632    4.9235 H   0  0  0  0  0  0  0  0  0  0  0  0
    0.6531   -0.0838    3.6786 H   0  0  0  0  0  0  0  0  0  0  0  0
   -1.5087    1.9601    0.9525 H   0  0  0  0  0  0  0  0  0  0  0  0
   -0.4471    1.8143    2.3469 H   0  0  0  0  0  0  0  0  0  0  0  0
   -0.8117   -1.7596    1.1503 H   0  0  0  0  0  0  0  0  0  0  0  0
   -2.5610   -1.5513    0.9090 H   0  0  0  0  0  0  0  0  0  0  0  0
    0.8437    1.8797    0.2668 H   0  0  0  0  0  0  0  0  0  0  0  0
    1.0967    0.3326    1.1018 H   0  0  0  0  0  0  0  0  0  0  0  0
   -2.1549    0.1137   -0.8783 H   0  0  0  0  0  0  0  0  0  0  0  0
   -1.3310   -1.4258   -1.2063 H   0  0  0  0  0  0  0  0  0  0  0  0
   -0.9753   -0.2486   -3.1510 H   0  0  0  0  0  0  0  0  0  0  0  0
    2.5704    0.7253   -0.8855 H   0  0  0  0  0  0  0  0  0  0  0  0
    0.3529   -0.1908   -5.2130 H   0  0  0  0  0  0  0  0  0  0  0  0
    3.8562    0.8062   -2.9748 H   0  0  0  0  0  0  0  0  0  0  0  0
  1  2  2  0  0  0  0
  1  3  2  0  0  0  0
  1  4  1  0  0  0  0
  1  5  1  0  0  0  0
  4  6  1  0  0  0  0
  4  7  1  0  0  0  0
  6  8  1  0  0  0  0
  7  9  1  0  0  0  0
  8 10  1  0  0  0  0
 10 11  1  0  0  0  0
 11 12  2  0  0  0  0
 11 13  1  0  0  0  0
 12 14  1  0  0  0  0
 13 15  2  0  0  0  0
 14 16  2  0  0  0  0
 16 17  1  0  0  0  0
  9 10  1  0  0  0  0
 15 16  1  0  0  0  0
  5 18  1  0  0  0  0
  5 19  1  0  0  0  0
  5 20  1  0  0  0  0
  6 21  1  0  0  0  0
  6 22  1  0  0  0  0
  7 23  1  0  0  0  0
  7 24  1  0  0  0  0
  8 25  1  0  0  0  0
  8 26  1  0  0  0  0
  9 27  1  0  0  0  0
  9 28  1  0  0  0  0
 12 29  1  0  0  0  0
 13 30  1  0  0  0  0
 14 31  1  0  0  0  0
 15 32  1  0  0  0  0
M  END
>  <Column 1>
CS(=O)(=O)N1CCN(c2ccc(F)cc2)CC1 ZINC000000029520

>  <Total Molweight>
258.316

>  <cLogP>
1.1574

>  <cLogS>
-2.237

>  <H-Acceptors>
4

>  <H-Donors>
0

>  <Total Surface Area>
182.59

>  <MMFF94 Energy>
28.116

$$$$
Compound 148
Actelion Java MolfileCreator 1.0

 36 37  0  0  0  0  0  0  0  0999 V2000
    1.7730    1.0474   -3.2254 S   0  0  0  0  0  0  0  0  0  0  0  0
    1.1163    2.0617   -4.0223 O   0  0  0  0  0  0  0  0  0  0  0  0
    2.7444    1.3992   -2.2129 O   0  0  0  0  0  0  0  0  0  0  0  0
    0.5644    0.1139   -2.4808 N   0  0  0  0  0  0  0  0  0  0  0  0
    2.5014   -0.1293   -4.3471 C   0  0  0  0  0  0  0  0  0  0  0  0
    1.0461   -0.9243   -1.5054 C   0  0  0  0  0  0  0  0  0  0  0  0
   -0.5680    0.9423   -1.9369 C   0  0  0  0  0  0  0  0  0  0  0  0
    0.8274   -0.5135   -0.0369 C   0  0  0  0  0  0  0  0  0  0  0  0
   -1.4188    0.1741   -0.9100 C   0  0  0  0  0  0  0  0  0  0  0  0
   -0.5995   -0.2626    0.2287 N   0  0  0  0  0  0  0  0  0  0  0  0
   -1.1579   -0.5462    1.4675 C   0  0  0  0  0  0  0  0  0  0  0  0
   -0.4533   -0.4384    2.6881 C   0  0  0  0  0  0  0  0  0  0  0  0
   -2.4948   -0.9744    1.5680 C   0  0  0  0  0  0  0  0  0  0  0  0
    0.8443    0.0211    2.7376 O   0  0  0  0  0  0  0  0  0  0  0  0
   -1.0258   -0.7981    3.9162 C   0  0  0  0  0  0  0  0  0  0  0  0
   -3.0827   -1.3115    2.7949 C   0  0  0  0  0  0  0  0  0  0  0  0
    0.8398    1.4459    2.8530 C   0  0  0  0  0  0  0  0  0  0  0  0
   -2.3448   -1.2314    3.9693 C   0  0  0  0  0  0  0  0  0  0  0  0
    2.9685   -0.9365   -3.7824 H   0  0  0  0  0  0  0  0  0  0  0  0
    3.2605    0.3949   -4.9321 H   0  0  0  0  0  0  0  0  0  0  0  0
    1.7236   -0.5111   -5.0110 H   0  0  0  0  0  0  0  0  0  0  0  0
    0.4955   -1.8484   -1.7221 H   0  0  0  0  0  0  0  0  0  0  0  0
    2.1043   -1.1533   -1.6640 H   0  0  0  0  0  0  0  0  0  0  0  0
   -1.2065    1.2454   -2.7739 H   0  0  0  0  0  0  0  0  0  0  0  0
   -0.1666    1.8454   -1.4599 H   0  0  0  0  0  0  0  0  0  0  0  0
    1.4064    0.3906    0.1815 H   0  0  0  0  0  0  0  0  0  0  0  0
    1.2049   -1.3313    0.5881 H   0  0  0  0  0  0  0  0  0  0  0  0
   -1.8765   -0.7002   -1.3884 H   0  0  0  0  0  0  0  0  0  0  0  0
   -2.2218    0.8405   -0.5724 H   0  0  0  0  0  0  0  0  0  0  0  0
   -3.1033   -1.0891    0.6752 H   0  0  0  0  0  0  0  0  0  0  0  0
   -0.4392   -0.7260    4.8275 H   0  0  0  0  0  0  0  0  0  0  0  0
   -4.1150   -1.6506    2.8233 H   0  0  0  0  0  0  0  0  0  0  0  0
    0.3156    1.9202    2.0162 H   0  0  0  0  0  0  0  0  0  0  0  0
    1.8799    1.7846    2.8346 H   0  0  0  0  0  0  0  0  0  0  0  0
    0.3984    1.7609    3.8050 H   0  0  0  0  0  0  0  0  0  0  0  0
   -2.7939   -1.5036    4.9201 H   0  0  0  0  0  0  0  0  0  0  0  0
  1  2  2  0  0  0  0
  1  3  2  0  0  0  0
  1  4  1  0  0  0  0
  1  5  1  0  0  0  0
  4  6  1  0  0  0  0
  4  7  1  0  0  0  0
  6  8  1  0  0  0  0
  7  9  1  0  0  0  0
  8 10  1  0  0  0  0
 10 11  1  0  0  0  0
 11 12  2  0  0  0  0
 11 13  1  0  0  0  0
 12 14  1  0  0  0  0
 12 15  1  0  0  0  0
 13 16  2  0  0  0  0
 14 17  1  0  0  0  0
 15 18  2  0  0  0  0
  9 10  1  0  0  0  0
 16 18  1  0  0  0  0
  5 19  1  0  0  0  0
  5 20  1  0  0  0  0
  5 21  1  0  0  0  0
  6 22  1  0  0  0  0
  6 23  1  0  0  0  0
  7 24  1  0  0  0  0
  7 25  1  0  0  0  0
  8 26  1  0  0  0  0
  8 27  1  0  0  0  0
  9 28  1  0  0  0  0
  9 29  1  0  0  0  0
 13 30  1  0  0  0  0
 15 31  1  0  0  0  0
 16 32  1  0  0  0  0
 17 33  1  0  0  0  0
 17 34  1  0  0  0  0
 17 35  1  0  0  0  0
 18 36  1  0  0  0  0
M  END
>  <Column 1>
COc1ccccc1N1CCN(S(C)(=O)=O)CC1 ZINC000000029521

>  <Total Molweight>
270.352

>  <cLogP>
0.9866

>  <cLogS>
-1.941

>  <H-Acceptors>
5

>  <H-Donors>
0

>  <Total Surface Area>
198.5

>  <MMFF94 Energy>
56.369

$$$$
Compound 149
Actelion Java MolfileCreator 1.0

 37 38  0  0  0  0  0  0  0  0999 V2000
    2.2491    1.5258   -0.3211 S   0  0  0  0  0  0  0  0  0  0  0  0
    1.3031    2.6077   -0.1921 O   0  0  0  0  0  0  0  0  0  0  0  0
    3.4178    1.4523    0.5245 O   0  0  0  0  0  0  0  0  0  0  0  0
    1.4163    0.0650   -0.2185 N   0  0  0  0  0  0  0  0  0  0  0  0
    2.7716    1.4588   -1.9326 N   0  0  0  0  0  0  0  0  0  0  0  0
    1.1587   -0.4222    1.1779 C   0  0  0  0  0  0  0  0  0  0  0  0
    0.1799   -0.0529   -1.0664 C   0  0  0  0  0  0  0  0  0  0  0  0
    3.7290    0.3684   -2.2229 C   0  0  0  0  0  0  0  0  0  0  0  0
    3.2648    2.7586   -2.4381 C   0  0  0  0  0  0  0  0  0  0  0  0
   -0.0681    0.2575    1.8115 C   0  0  0  0  0  0  0  0  0  0  0  0
   -1.0724    0.5792   -0.4169 C   0  0  0  0  0  0  0  0  0  0  0  0
   -1.2490    0.0662    0.9550 N   0  0  0  0  0  0  0  0  0  0  0  0
   -2.2439   -0.8517    1.2396 C   0  0  0  0  0  0  0  0  0  0  0  0
   -2.0313   -1.9671    2.0639 C   0  0  0  0  0  0  0  0  0  0  0  0
   -3.5401   -0.6940    0.7218 C   0  0  0  0  0  0  0  0  0  0  0  0
   -3.0503   -2.8876    2.3414 C   0  0  0  0  0  0  0  0  0  0  0  0
   -4.5660   -1.6066    0.9946 C   0  0  0  0  0  0  0  0  0  0  0  0
   -4.3190   -2.7081    1.8040 C   0  0  0  0  0  0  0  0  0  0  0  0
    2.0429   -0.2734    1.8059 H   0  0  0  0  0  0  0  0  0  0  0  0
    1.0038   -1.5068    1.1227 H   0  0  0  0  0  0  0  0  0  0  0  0
    0.0042   -1.1239   -1.2304 H   0  0  0  0  0  0  0  0  0  0  0  0
    0.3490    0.3827   -2.0564 H   0  0  0  0  0  0  0  0  0  0  0  0
    4.6943    0.5498   -1.7409 H   0  0  0  0  0  0  0  0  0  0  0  0
    3.3363   -0.5997   -1.9009 H   0  0  0  0  0  0  0  0  0  0  0  0
    3.8893    0.3011   -3.3041 H   0  0  0  0  0  0  0  0  0  0  0  0
    4.1457    3.0898   -1.8799 H   0  0  0  0  0  0  0  0  0  0  0  0
    2.4807    3.5186   -2.3733 H   0  0  0  0  0  0  0  0  0  0  0  0
    3.5363    2.6694   -3.4951 H   0  0  0  0  0  0  0  0  0  0  0  0
    0.1161    1.3340    1.9101 H   0  0  0  0  0  0  0  0  0  0  0  0
   -0.2293   -0.1086    2.8314 H   0  0  0  0  0  0  0  0  0  0  0  0
   -0.9795    1.6687   -0.3724 H   0  0  0  0  0  0  0  0  0  0  0  0
   -1.9318    0.3731   -1.0635 H   0  0  0  0  0  0  0  0  0  0  0  0
   -1.0544   -2.1612    2.4950 H   0  0  0  0  0  0  0  0  0  0  0  0
   -3.7829    0.1767    0.1179 H   0  0  0  0  0  0  0  0  0  0  0  0
   -2.8458   -3.7439    2.9783 H   0  0  0  0  0  0  0  0  0  0  0  0
   -5.5575   -1.4444    0.5809 H   0  0  0  0  0  0  0  0  0  0  0  0
   -5.1120   -3.4180    2.0206 H   0  0  0  0  0  0  0  0  0  0  0  0
  1  2  2  0  0  0  0
  1  3  2  0  0  0  0
  1  4  1  0  0  0  0
  1  5  1  0  0  0  0
  4  6  1  0  0  0  0
  4  7  1  0  0  0  0
  5  8  1  0  0  0  0
  5  9  1  0  0  0  0
  6 10  1  0  0  0  0
  7 11  1  0  0  0  0
 10 12  1  0  0  0  0
 12 13  1  0  0  0  0
 13 14  2  0  0  0  0
 13 15  1  0  0  0  0
 14 16  1  0  0  0  0
 15 17  2  0  0  0  0
 16 18  2  0  0  0  0
 11 12  1  0  0  0  0
 17 18  1  0  0  0  0
  6 19  1  0  0  0  0
  6 20  1  0  0  0  0
  7 21  1  0  0  0  0
  7 22  1  0  0  0  0
  8 23  1  0  0  0  0
  8 24  1  0  0  0  0
  8 25  1  0  0  0  0
  9 26  1  0  0  0  0
  9 27  1  0  0  0  0
  9 28  1  0  0  0  0
 10 29  1  0  0  0  0
 10 30  1  0  0  0  0
 11 31  1  0  0  0  0
 11 32  1  0  0  0  0
 14 33  1  0  0  0  0
 15 34  1  0  0  0  0
 16 35  1  0  0  0  0
 17 36  1  0  0  0  0
 18 37  1  0  0  0  0
M  END
>  <Column 1>
CN(C)S(=O)(=O)N1CCN(c2ccccc2)CC1 ZINC000000030415

>  <Total Molweight>
269.368

>  <cLogP>
0.9143

>  <cLogS>
-0.956

>  <H-Acceptors>
5

>  <H-Donors>
0

>  <Total Surface Area>
198.8

>  <MMFF94 Energy>
-84.508

$$$$
Compound 150
Actelion Java MolfileCreator 1.0

 29 29  0  0  1  0  0  0  0  0999 V2000
    0.7978    0.9574    1.6760 S   0  0  0  0  0  0  0  0  0  0  0  0
    2.2389    0.9232    1.7494 O   0  0  0  0  0  0  0  0  0  0  0  0
   -0.0323    0.5255    2.7735 O   0  0  0  0  0  0  0  0  0  0  0  0
    0.3418    2.4970    1.2067 N   0  0  0  0  0  0  0  0  0  0  0  0
    0.3953    0.0720    0.3371 N   0  0  0  0  0  0  0  0  0  0  0  0
   -1.0667    2.8945    1.2894 C   0  0  0  0  0  0  0  0  0  0  0  0
    1.0924    3.1442    0.1246 C   0  0  0  0  0  0  0  0  0  0  0  0
   -1.0037   -0.1874   -0.0120 C   0  0  0  0  0  0  0  0  0  0  0  0
   -1.1089   -1.4568   -0.8713 C   0  0  0  0  0  0  0  0  0  0  0  0
   -0.2963   -1.3000   -2.0573 O   0  0  0  0  0  0  0  0  0  0  0  0
   -0.6509   -2.7335   -0.1739 C   0  0  0  0  0  0  0  0  0  0  0  0
    0.5403   -2.4578   -2.1794 C   0  0  0  0  0  0  0  0  0  0  0  0
    0.7025   -3.0073   -0.7821 C   0  0  0  0  0  0  0  0  0  0  0  0
    1.0383    0.1692   -0.4463 H   0  0  0  0  0  0  0  0  0  0  0  0
   -1.5677    2.7713    0.3257 H   0  0  0  0  0  0  0  0  0  0  0  0
   -1.6137    2.3272    2.0465 H   0  0  0  0  0  0  0  0  0  0  0  0
   -1.1276    3.9490    1.5782 H   0  0  0  0  0  0  0  0  0  0  0  0
    0.7978    2.7374   -0.8470 H   0  0  0  0  0  0  0  0  0  0  0  0
    2.1703    3.0197    0.2583 H   0  0  0  0  0  0  0  0  0  0  0  0
    0.8952    4.2213    0.1241 H   0  0  0  0  0  0  0  0  0  0  0  0
   -1.6264   -0.2952    0.8809 H   0  0  0  0  0  0  0  0  0  0  0  0
   -1.3667    0.6597   -0.6025 H   0  0  0  0  0  0  0  0  0  0  0  0
   -2.1507   -1.5659   -1.1949 H   0  0  0  0  0  0  0  0  0  0  0  0
   -1.3352   -3.5512   -0.4326 H   0  0  0  0  0  0  0  0  0  0  0  0
   -0.6304   -2.6613    0.9176 H   0  0  0  0  0  0  0  0  0  0  0  0
    0.0332   -3.1751   -2.8338 H   0  0  0  0  0  0  0  0  0  0  0  0
    1.4930   -2.1772   -2.6364 H   0  0  0  0  0  0  0  0  0  0  0  0
    1.4746   -2.4465   -0.2438 H   0  0  0  0  0  0  0  0  0  0  0  0
    0.9799   -4.0645   -0.7695 H   0  0  0  0  0  0  0  0  0  0  0  0
  1  2  2  0  0  0  0
  1  3  2  0  0  0  0
  1  4  1  0  0  0  0
  1  5  1  0  0  0  0
  4  6  1  0  0  0  0
  4  7  1  0  0  0  0
  5  8  1  0  0  0  0
  8  9  1  0  0  0  0
  9 10  1  0  0  0  0
  9 11  1  0  0  0  0
 10 12  1  0  0  0  0
 11 13  1  0  0  0  0
 12 13  1  0  0  0  0
  5 14  1  0  0  0  0
  6 15  1  0  0  0  0
  6 16  1  0  0  0  0
  6 17  1  0  0  0  0
  7 18  1  0  0  0  0
  7 19  1  0  0  0  0
  7 20  1  0  0  0  0
  8 21  1  0  0  0  0
  8 22  1  0  0  0  0
  9 23  1  0  0  0  0
 11 24  1  0  0  0  0
 11 25  1  0  0  0  0
 12 26  1  0  0  0  0
 12 27  1  0  0  0  0
 13 28  1  0  0  0  0
 13 29  1  0  0  0  0
M  END
>  <Column 1>
CN(C)S(=O)(=O)NC[C@@H]1CCCO1 ZINC000000030464

>  <Total Molweight>
208.281

>  <cLogP>
-0.3079

>  <cLogS>
-0.641

>  <H-Acceptors>
5

>  <H-Donors>
1

>  <Total Surface Area>
152.4

>  <MMFF94 Energy>
-160.48

$$$$
Compound 151
Actelion Java MolfileCreator 1.0

 37 38  0  0  0  0  0  0  0  0999 V2000
    1.4521   -1.2100   -2.5019 S   0  0  0  0  0  0  0  0  0  0  0  0
    2.1742   -2.4412   -2.2839 O   0  0  0  0  0  0  0  0  0  0  0  0
    0.9532   -0.8477   -3.8090 O   0  0  0  0  0  0  0  0  0  0  0  0
    0.1463   -1.1577   -1.4487 N   0  0  0  0  0  0  0  0  0  0  0  0
    2.3798    0.0785   -1.9058 N   0  0  0  0  0  0  0  0  0  0  0  0
   -0.7075    0.0690   -1.5150 C   0  0  0  0  0  0  0  0  0  0  0  0
    0.3590   -1.6175   -0.0461 C   0  0  0  0  0  0  0  0  0  0  0  0
    2.8613    1.0208   -2.9369 C   0  0  0  0  0  0  0  0  0  0  0  0
    3.4434   -0.2833   -0.9470 C   0  0  0  0  0  0  0  0  0  0  0  0
   -2.0486   -0.1720   -0.7925 C   0  0  0  0  0  0  0  0  0  0  0  0
   -0.9970   -1.8619    0.6524 C   0  0  0  0  0  0  0  0  0  0  0  0
   -1.8225   -0.6371    0.5892 N   0  0  0  0  0  0  0  0  0  0  0  0
   -1.9082    0.2018    1.6867 C   0  0  0  0  0  0  0  0  0  0  0  0
   -1.8174    1.6001    1.5809 C   0  0  0  0  0  0  0  0  0  0  0  0
   -2.1173   -0.3222    2.9757 C   0  0  0  0  0  0  0  0  0  0  0  0
   -1.9075    2.4319    2.7037 C   0  0  0  0  0  0  0  0  0  0  0  0
   -2.2106    0.5002    4.1038 C   0  0  0  0  0  0  0  0  0  0  0  0
   -2.1012    1.8726    3.9562 C   0  0  0  0  0  0  0  0  0  0  0  0
   -2.1887    2.6660    5.0314 F   0  0  0  0  0  0  0  0  0  0  0  0
   -0.9236    0.3275   -2.5563 H   0  0  0  0  0  0  0  0  0  0  0  0
   -0.1750    0.9072   -1.0516 H   0  0  0  0  0  0  0  0  0  0  0  0
    0.9180   -0.8562    0.5088 H   0  0  0  0  0  0  0  0  0  0  0  0
    0.9255   -2.5536   -0.0348 H   0  0  0  0  0  0  0  0  0  0  0  0
    3.5062    0.5132   -3.6605 H   0  0  0  0  0  0  0  0  0  0  0  0
    2.0167    1.4881   -3.4518 H   0  0  0  0  0  0  0  0  0  0  0  0
    3.4350    1.8287   -2.4705 H   0  0  0  0  0  0  0  0  0  0  0  0
    4.3062   -0.7112   -1.4670 H   0  0  0  0  0  0  0  0  0  0  0  0
    3.0912   -0.9944   -0.1968 H   0  0  0  0  0  0  0  0  0  0  0  0
    3.7687    0.6129   -0.4085 H   0  0  0  0  0  0  0  0  0  0  0  0
   -2.6837    0.7197   -0.8345 H   0  0  0  0  0  0  0  0  0  0  0  0
   -2.5996   -0.9574   -1.3264 H   0  0  0  0  0  0  0  0  0  0  0  0
   -0.8155   -2.2084    1.6746 H   0  0  0  0  0  0  0  0  0  0  0  0
   -1.5326   -2.6681    0.1355 H   0  0  0  0  0  0  0  0  0  0  0  0
   -1.6527    2.0775    0.6200 H   0  0  0  0  0  0  0  0  0  0  0  0
   -2.2490   -1.3923    3.1155 H   0  0  0  0  0  0  0  0  0  0  0  0
   -1.8270    3.5091    2.6021 H   0  0  0  0  0  0  0  0  0  0  0  0
   -2.3787    0.0742    5.0872 H   0  0  0  0  0  0  0  0  0  0  0  0
  1  2  2  0  0  0  0
  1  3  2  0  0  0  0
  1  4  1  0  0  0  0
  1  5  1  0  0  0  0
  4  6  1  0  0  0  0
  4  7  1  0  0  0  0
  5  8  1  0  0  0  0
  5  9  1  0  0  0  0
  6 10  1  0  0  0  0
  7 11  1  0  0  0  0
 10 12  1  0  0  0  0
 12 13  1  0  0  0  0
 13 14  2  0  0  0  0
 13 15  1  0  0  0  0
 14 16  1  0  0  0  0
 15 17  2  0  0  0  0
 16 18  2  0  0  0  0
 18 19  1  0  0  0  0
 11 12  1  0  0  0  0
 17 18  1  0  0  0  0
  6 20  1  0  0  0  0
  6 21  1  0  0  0  0
  7 22  1  0  0  0  0
  7 23  1  0  0  0  0
  8 24  1  0  0  0  0
  8 25  1  0  0  0  0
  8 26  1  0  0  0  0
  9 27  1  0  0  0  0
  9 28  1  0  0  0  0
  9 29  1  0  0  0  0
 10 30  1  0  0  0  0
 10 31  1  0  0  0  0
 11 32  1  0  0  0  0
 11 33  1  0  0  0  0
 14 34  1  0  0  0  0
 15 35  1  0  0  0  0
 16 36  1  0  0  0  0
 17 37  1  0  0  0  0
M  END
>  <Column 1>
CN(C)S(=O)(=O)N1CCN(c2ccc(F)cc2)CC1 ZINC000000030549

>  <Total Molweight>
287.358

>  <cLogP>
1.0151

>  <cLogS>
-1.27

>  <H-Acceptors>
5

>  <H-Donors>
0

>  <Total Surface Area>
205.15

>  <MMFF94 Energy>
-84.368

$$$$
Compound 152
Actelion Java MolfileCreator 1.0

 31 31  0  0  0  0  0  0  0  0999 V2000
    1.9116   -2.1507   -0.7165 S   0  0  0  0  0  0  0  0  0  0  0  0
    2.4988   -2.1800   -2.0335 O   0  0  0  0  0  0  0  0  0  0  0  0
    1.4979   -3.3503   -0.0309 O   0  0  0  0  0  0  0  0  0  0  0  0
    2.9555   -1.2810    0.2972 N   0  0  0  0  0  0  0  0  0  0  0  0
    0.6180   -1.1110   -0.7666 N   0  0  0  0  0  0  0  0  0  0  0  0
    3.5456   -0.0619   -0.2980 C   0  0  0  0  0  0  0  0  0  0  0  0
    3.9981   -2.1305    0.9195 C   0  0  0  0  0  0  0  0  0  0  0  0
   -0.1101   -0.8908    0.4820 C   0  0  0  0  0  0  0  0  0  0  0  0
   -1.2495    0.0785    0.2716 C   0  0  0  0  0  0  0  0  0  0  0  0
   -1.2191    1.3598    0.8368 C   0  0  0  0  0  0  0  0  0  0  0  0
   -2.3515   -0.2897   -0.5122 C   0  0  0  0  0  0  0  0  0  0  0  0
   -2.2728    2.2528    0.6256 C   0  0  0  0  0  0  0  0  0  0  0  0
   -3.4038    0.6038   -0.7232 C   0  0  0  0  0  0  0  0  0  0  0  0
   -3.3674    1.8864   -0.1656 C   0  0  0  0  0  0  0  0  0  0  0  0
   -4.5138    2.8333   -0.3636 C   0  0  0  0  0  0  0  0  0  0  0  0
    0.7830   -0.2861   -1.3345 H   0  0  0  0  0  0  0  0  0  0  0  0
    4.2733   -0.3129   -1.0754 H   0  0  0  0  0  0  0  0  0  0  0  0
    2.7720    0.5864   -0.7175 H   0  0  0  0  0  0  0  0  0  0  0  0
    4.0547    0.5161    0.4806 H   0  0  0  0  0  0  0  0  0  0  0  0
    4.6368   -2.5888    0.1583 H   0  0  0  0  0  0  0  0  0  0  0  0
    3.5406   -2.9091    1.5367 H   0  0  0  0  0  0  0  0  0  0  0  0
    4.6266   -1.5270    1.5826 H   0  0  0  0  0  0  0  0  0  0  0  0
   -0.5189   -1.8338    0.8618 H   0  0  0  0  0  0  0  0  0  0  0  0
    0.5657   -0.4897    1.2453 H   0  0  0  0  0  0  0  0  0  0  0  0
   -0.3777    1.6728    1.4509 H   0  0  0  0  0  0  0  0  0  0  0  0
   -2.3915   -1.2793   -0.9641 H   0  0  0  0  0  0  0  0  0  0  0  0
   -2.2340    3.2389    1.0833 H   0  0  0  0  0  0  0  0  0  0  0  0
   -4.2516    0.2911   -1.3288 H   0  0  0  0  0  0  0  0  0  0  0  0
   -4.9945    2.6674   -1.3333 H   0  0  0  0  0  0  0  0  0  0  0  0
   -5.2561    2.6929    0.4282 H   0  0  0  0  0  0  0  0  0  0  0  0
   -4.1694    3.8727   -0.3459 H   0  0  0  0  0  0  0  0  0  0  0  0
  1  2  2  0  0  0  0
  1  3  2  0  0  0  0
  1  4  1  0  0  0  0
  1  5  1  0  0  0  0
  4  6  1  0  0  0  0
  4  7  1  0  0  0  0
  5  8  1  0  0  0  0
  8  9  1  0  0  0  0
  9 10  2  0  0  0  0
  9 11  1  0  0  0  0
 10 12  1  0  0  0  0
 11 13  2  0  0  0  0
 12 14  2  0  0  0  0
 14 15  1  0  0  0  0
 13 14  1  0  0  0  0
  5 16  1  0  0  0  0
  6 17  1  0  0  0  0
  6 18  1  0  0  0  0
  6 19  1  0  0  0  0
  7 20  1  0  0  0  0
  7 21  1  0  0  0  0
  7 22  1  0  0  0  0
  8 23  1  0  0  0  0
  8 24  1  0  0  0  0
 10 25  1  0  0  0  0
 11 26  1  0  0  0  0
 12 27  1  0  0  0  0
 13 28  1  0  0  0  0
 15 29  1  0  0  0  0
 15 30  1  0  0  0  0
 15 31  1  0  0  0  0
M  END
>  <Column 1>
Cc1ccc(CNS(=O)(=O)N(C)C)cc1 ZINC000000030724

>  <Total Molweight>
228.315

>  <cLogP>
1.1543

>  <cLogS>
-1.623

>  <H-Acceptors>
4

>  <H-Donors>
1

>  <Total Surface Area>
174.14

>  <MMFF94 Energy>
-175.76

$$$$
Compound 153
Actelion Java MolfileCreator 1.0

 28 28  0  0  0  0  0  0  0  0999 V2000
   -0.0799    1.2789   -0.8791 S   0  0  0  0  0  0  0  0  0  0  0  0
    1.2122    1.9234   -0.8440 O   0  0  0  0  0  0  0  0  0  0  0  0
   -0.7228    0.9384   -2.1268 O   0  0  0  0  0  0  0  0  0  0  0  0
   -0.0386   -0.0878    0.1080 N   0  0  0  0  0  0  0  0  0  0  0  0
   -1.1558    2.2271    0.0156 N   0  0  0  0  0  0  0  0  0  0  0  0
    1.1833   -0.3494    0.8957 C   0  0  0  0  0  0  0  0  0  0  0  0
   -0.7134   -1.3149   -0.3618 C   0  0  0  0  0  0  0  0  0  0  0  0
   -0.6694    2.7348    1.3072 C   0  0  0  0  0  0  0  0  0  0  0  0
   -2.5544    1.7751    0.0574 C   0  0  0  0  0  0  0  0  0  0  0  0
    2.1764   -1.1649    0.0733 C   0  0  0  0  0  0  0  0  0  0  0  0
    0.2411   -2.1500   -1.2097 C   0  0  0  0  0  0  0  0  0  0  0  0
    1.5358   -2.4483   -0.4542 C   0  0  0  0  0  0  0  0  0  0  0  0
    0.8991   -0.9017    1.8001 H   0  0  0  0  0  0  0  0  0  0  0  0
    1.6381    0.5824    1.2463 H   0  0  0  0  0  0  0  0  0  0  0  0
   -1.6262   -1.0792   -0.9180 H   0  0  0  0  0  0  0  0  0  0  0  0
   -1.0380   -1.8878    0.5158 H   0  0  0  0  0  0  0  0  0  0  0  0
   -0.6380    1.9390    2.0569 H   0  0  0  0  0  0  0  0  0  0  0  0
    0.3229    3.1831    1.2088 H   0  0  0  0  0  0  0  0  0  0  0  0
   -1.3367    3.5238    1.6695 H   0  0  0  0  0  0  0  0  0  0  0  0
   -2.6683    0.9055    0.7108 H   0  0  0  0  0  0  0  0  0  0  0  0
   -2.9224    1.5311   -0.9428 H   0  0  0  0  0  0  0  0  0  0  0  0
   -3.1918    2.5794    0.4397 H   0  0  0  0  0  0  0  0  0  0  0  0
    3.0492   -1.4133    0.6871 H   0  0  0  0  0  0  0  0  0  0  0  0
    2.5380   -0.5696   -0.7736 H   0  0  0  0  0  0  0  0  0  0  0  0
   -0.2439   -3.0896   -1.4962 H   0  0  0  0  0  0  0  0  0  0  0  0
    0.4813   -1.6166   -2.1372 H   0  0  0  0  0  0  0  0  0  0  0  0
    1.3210   -3.1204    0.3857 H   0  0  0  0  0  0  0  0  0  0  0  0
    2.2383   -2.9713   -1.1123 H   0  0  0  0  0  0  0  0  0  0  0  0
  1  2  2  0  0  0  0
  1  3  2  0  0  0  0
  1  4  1  0  0  0  0
  1  5  1  0  0  0  0
  4  6  1  0  0  0  0
  4  7  1  0  0  0  0
  5  8  1  0  0  0  0
  5  9  1  0  0  0  0
  6 10  1  0  0  0  0
  7 11  1  0  0  0  0
 10 12  1  0  0  0  0
 11 12  1  0  0  0  0
  6 13  1  0  0  0  0
  6 14  1  0  0  0  0
  7 15  1  0  0  0  0
  7 16  1  0  0  0  0
  8 17  1  0  0  0  0
  8 18  1  0  0  0  0
  8 19  1  0  0  0  0
  9 20  1  0  0  0  0
  9 21  1  0  0  0  0
  9 22  1  0  0  0  0
 10 23  1  0  0  0  0
 10 24  1  0  0  0  0
 11 25  1  0  0  0  0
 11 26  1  0  0  0  0
 12 27  1  0  0  0  0
 12 28  1  0  0  0  0
M  END
>  <Column 1>
CN(C)S(=O)(=O)N1CCCCC1 ZINC000000030853

>  <Total Molweight>
192.282

>  <cLogP>
0.4737

>  <cLogS>
-0.498

>  <H-Acceptors>
4

>  <H-Donors>
0

>  <Total Surface Area>
142.5

>  <MMFF94 Energy>
-161.41

$$$$
Compound 154
Actelion Java MolfileCreator 1.0

 13 14  0  0  0  0  0  0  0  0999 V2000
    0.3367   -2.4433    1.2632 S   0  0  0  0  0  0  0  0  0  0  0  0
    0.0371   -1.6007    2.6746 N   0  0  0  0  0  0  0  0  0  0  0  0
    0.1953   -1.0444    0.2680 C   0  0  0  0  0  0  0  0  0  0  0  0
   -0.1695   -0.3109    2.4721 N   0  0  0  0  0  0  0  0  0  0  0  0
   -0.0852    0.0240    1.1250 C   0  0  0  0  0  0  0  0  0  0  0  0
    0.3153   -0.8866   -1.1201 C   0  0  0  0  0  0  0  0  0  0  0  0
   -0.2528    1.3076    0.5661 C   0  0  0  0  0  0  0  0  0  0  0  0
    0.1442    0.3978   -1.6468 C   0  0  0  0  0  0  0  0  0  0  0  0
   -0.1360    1.4816   -0.8179 C   0  0  0  0  0  0  0  0  0  0  0  0
    0.5336   -1.7311   -1.7660 H   0  0  0  0  0  0  0  0  0  0  0  0
   -0.4711    2.1513    1.2137 H   0  0  0  0  0  0  0  0  0  0  0  0
    0.2315    0.5516   -2.7209 H   0  0  0  0  0  0  0  0  0  0  0  0
   -0.2657    2.4730   -1.2470 H   0  0  0  0  0  0  0  0  0  0  0  0
  1  2  1  0  0  0  0
  1  3  1  0  0  0  0
  2  4  2  0  0  0  0
  3  5  2  0  0  0  0
  3  6  1  0  0  0  0
  5  7  1  0  0  0  0
  6  8  2  0  0  0  0
  7  9  2  0  0  0  0
  4  5  1  0  0  0  0
  8  9  1  0  0  0  0
  6 10  1  0  0  0  0
  7 11  1  0  0  0  0
  8 12  1  0  0  0  0
  9 13  1  0  0  0  0
M  END
>  <Column 1>
c1ccc2snnc2c1 ZINC000000031178

>  <Total Molweight>
136.178

>  <cLogP>
1.7675

>  <cLogS>
-2.487

>  <H-Acceptors>
2

>  <H-Donors>
0

>  <Total Surface Area>
101.32

>  <MMFF94 Energy>
23.121

$$$$
Compound 155
Actelion Java MolfileCreator 1.0

 26 26  0  0  0  0  0  0  0  0999 V2000
    1.7156    1.9497   -0.4676 O   0  0  0  0  0  0  0  0  0  0  0  0
    0.5686    1.3107    0.1001 C   0  0  0  0  0  0  0  0  0  0  0  0
    2.6209    2.4646    0.4981 C   0  0  0  0  0  0  0  0  0  0  0  0
   -0.4758    1.1822   -1.0125 C   0  0  0  0  0  0  0  0  0  0  0  0
    0.9196   -0.0664    0.6741 C   0  0  0  0  0  0  0  0  0  0  0  0
   -1.7173    0.4228   -0.5476 C   0  0  0  0  0  0  0  0  0  0  0  0
   -0.3270   -0.8187    1.1399 C   0  0  0  0  0  0  0  0  0  0  0  0
   -1.3700   -0.9560    0.0248 C   0  0  0  0  0  0  0  0  0  0  0  0
   -0.8745   -1.7552   -1.0536 O   0  0  0  0  0  0  0  0  0  0  0  0
   -0.9366   -3.1525   -0.8044 C   0  0  0  0  0  0  0  0  0  0  0  0
    0.1538    1.9494    0.8912 H   0  0  0  0  0  0  0  0  0  0  0  0
    3.0990    1.6564    1.0570 H   0  0  0  0  0  0  0  0  0  0  0  0
    3.4011    3.0204   -0.0294 H   0  0  0  0  0  0  0  0  0  0  0  0
    2.1111    3.1498    1.1821 H   0  0  0  0  0  0  0  0  0  0  0  0
   -0.0309    0.6828   -1.8830 H   0  0  0  0  0  0  0  0  0  0  0  0
   -0.7620    2.1813   -1.3637 H   0  0  0  0  0  0  0  0  0  0  0  0
    1.6069    0.0396    1.5208 H   0  0  0  0  0  0  0  0  0  0  0  0
    1.4620   -0.6544   -0.0769 H   0  0  0  0  0  0  0  0  0  0  0  0
   -2.3974    0.3101   -1.4002 H   0  0  0  0  0  0  0  0  0  0  0  0
   -2.2401    1.0145    0.2138 H   0  0  0  0  0  0  0  0  0  0  0  0
   -0.7735   -0.2830    1.9871 H   0  0  0  0  0  0  0  0  0  0  0  0
   -0.0227   -1.8024    1.5116 H   0  0  0  0  0  0  0  0  0  0  0  0
   -2.2874   -1.4088    0.4211 H   0  0  0  0  0  0  0  0  0  0  0  0
   -0.2790   -3.4355    0.0212 H   0  0  0  0  0  0  0  0  0  0  0  0
   -1.9646   -3.4612   -0.5923 H   0  0  0  0  0  0  0  0  0  0  0  0
   -0.5984   -3.6738   -1.7041 H   0  0  0  0  0  0  0  0  0  0  0  0
  1  2  1  0  0  0  0
  1  3  1  0  0  0  0
  2  4  1  0  0  0  0
  2  5  1  0  0  0  0
  4  6  1  0  0  0  0
  5  7  1  0  0  0  0
  6  8  1  0  0  0  0
  8  9  1  0  0  0  0
  9 10  1  0  0  0  0
  7  8  1  0  0  0  0
  2 11  1  0  0  0  0
  3 12  1  0  0  0  0
  3 13  1  0  0  0  0
  3 14  1  0  0  0  0
  4 15  1  0  0  0  0
  4 16  1  0  0  0  0
  5 17  1  0  0  0  0
  5 18  1  0  0  0  0
  6 19  1  0  0  0  0
  6 20  1  0  0  0  0
  7 21  1  0  0  0  0
  7 22  1  0  0  0  0
  8 23  1  0  0  0  0
 10 24  1  0  0  0  0
 10 25  1  0  0  0  0
 10 26  1  0  0  0  0
M  END
>  <Column 1>
COC1CCC(OC)CC1 ZINC000000031221

>  <Total Molweight>
144.213

>  <cLogP>
1.2036

>  <cLogS>
-1.608

>  <H-Acceptors>
2

>  <H-Donors>
0

>  <Total Surface Area>
124.56

>  <MMFF94 Energy>
20.265

$$$$
Compound 156
Actelion Java MolfileCreator 1.0

 16 17  0  0  0  0  0  0  0  0999 V2000
   -1.6085   -0.7236   -2.8968 O   0  0  0  0  0  0  0  0  0  0  0  0
   -1.0894   -0.5523   -1.8005 C   0  0  0  0  0  0  0  0  0  0  0  0
   -1.4697   -1.2695   -0.6863 N   0  0  0  0  0  0  0  0  0  0  0  0
   -0.0907    0.3650   -1.5949 N   0  0  0  0  0  0  0  0  0  0  0  0
   -0.9445   -1.1445    0.5794 C   0  0  0  0  0  0  0  0  0  0  0  0
    0.4648    0.5325   -0.3706 C   0  0  0  0  0  0  0  0  0  0  0  0
   -1.3162   -1.8056    1.5389 O   0  0  0  0  0  0  0  0  0  0  0  0
    0.1085   -0.1484    0.7019 C   0  0  0  0  0  0  0  0  0  0  0  0
    1.5273    1.4491    0.0399 C   0  0  0  0  0  0  0  0  0  0  0  0
    0.8738    0.2390    1.8816 C   0  0  0  0  0  0  0  0  0  0  0  0
    2.1012    2.2374   -0.6877 O   0  0  0  0  0  0  0  0  0  0  0  0
    1.7561    1.2613    1.3765 O   0  0  0  0  0  0  0  0  0  0  0  0
   -2.2038   -1.9495   -0.8181 H   0  0  0  0  0  0  0  0  0  0  0  0
    0.2256    0.9194   -2.3844 H   0  0  0  0  0  0  0  0  0  0  0  0
    0.2493    0.6692    2.6696 H   0  0  0  0  0  0  0  0  0  0  0  0
    1.4761   -0.5804    2.2839 H   0  0  0  0  0  0  0  0  0  0  0  0
  1  2  2  0  0  0  0
  2  3  1  0  0  0  0
  2  4  1  0  0  0  0
  3  5  1  0  0  0  0
  4  6  1  0  0  0  0
  5  7  2  0  0  0  0
  5  8  1  0  0  0  0
  6  9  1  0  0  0  0
  8 10  1  0  0  0  0
  9 11  2  0  0  0  0
  9 12  1  0  0  0  0
  6  8  2  0  0  0  0
 10 12  1  0  0  0  0
  3 13  1  0  0  0  0
  4 14  1  0  0  0  0
 10 15  1  0  0  0  0
 10 16  1  0  0  0  0
M  END
>  <Column 1>
O=C1OCc2c1[nH]c(=O)[nH]c2=O ZINC000000031381

>  <Total Molweight>
168.108

>  <cLogP>
-1.6133

>  <cLogS>
-1.081

>  <H-Acceptors>
6

>  <H-Donors>
2

>  <Total Surface Area>
109.35

>  <MMFF94 Energy>
-120.5

$$$$
Compound 157
Actelion Java MolfileCreator 1.0

 17 18  0  0  0  0  0  0  0  0999 V2000
    1.9614    3.4344    0.4084 O   0  0  0  0  0  0  0  0  0  0  0  0
    1.5948    2.5260    1.1627 N   0  0  0  0  0  0  0  0  0  0  0  0
    1.7942    2.4968    2.3838 O   0  0  0  0  0  0  0  0  0  0  0  0
    0.8853    1.4275    0.5658 C   0  0  0  0  0  0  0  0  0  0  0  0
    0.6087    1.3910   -0.8870 C   0  0  0  0  0  0  0  0  0  0  0  0
    0.4511    0.4006    1.3070 C   0  0  0  0  0  0  0  0  0  0  0  0
   -0.0278    0.4301   -1.4985 N   0  0  0  0  0  0  0  0  0  0  0  0
   -0.2288   -0.6335    0.6774 N   0  0  0  0  0  0  0  0  0  0  0  0
   -0.4587   -0.6066   -0.7085 C   0  0  0  0  0  0  0  0  0  0  0  0
   -0.7405   -1.7477    1.2508 N   0  0  0  0  0  0  0  0  0  0  0  0
   -1.1465   -1.7670   -0.9894 C   0  0  0  0  0  0  0  0  0  0  0  0
   -1.2907   -2.4237    0.2403 C   0  0  0  0  0  0  0  0  0  0  0  0
   -1.6093   -2.1998   -2.2623 C   0  0  0  0  0  0  0  0  0  0  0  0
   -2.0024   -2.5868   -3.2833 N   0  0  0  0  0  0  0  0  0  0  0  0
    0.9698    2.2410   -1.4896 H   0  0  0  0  0  0  0  0  0  0  0  0
    0.5841    0.2993    2.3767 H   0  0  0  0  0  0  0  0  0  0  0  0
   -1.7751   -3.3708    0.4475 H   0  0  0  0  0  0  0  0  0  0  0  0
  1  2  2  0  0  0  0
  2  3  1  0  0  0  0
  2  4  1  0  0  0  0
  4  5  1  0  0  0  0
  4  6  2  0  0  0  0
  5  7  2  0  0  0  0
  6  8  1  0  0  0  0
  7  9  1  0  0  0  0
  8 10  1  0  0  0  0
  9 11  2  0  0  0  0
 10 12  2  0  0  0  0
 11 13  1  0  0  0  0
 13 14  3  0  0  0  0
  8  9  1  0  0  0  0
 11 12  1  0  0  0  0
  5 15  1  0  0  0  0
  6 16  1  0  0  0  0
 12 17  1  0  0  0  0
M  CHG  2   2   1   3  -1
M  END
>  <Column 1>
N#Cc1cnn2cc([N+](=O)[O-])cnc12 ZINC000000031426

>  <Total Molweight>
189.134

>  <cLogP>
-1.5237

>  <cLogS>
-2.671

>  <H-Acceptors>
6

>  <H-Donors>
0

>  <Total Surface Area>
141.41

>  <MMFF94 Energy>
30.051

$$$$
Compound 158
Actelion Java MolfileCreator 1.0

 22 23  0  0  0  0  0  0  0  0999 V2000
    1.3772    0.1619   -2.0257 F   0  0  0  0  0  0  0  0  0  0  0  0
    1.1811    0.9760   -0.9776 C   0  0  0  0  0  0  0  0  0  0  0  0
    0.2895    0.6124    0.0418 C   0  0  0  0  0  0  0  0  0  0  0  0
    1.8444    2.1978   -0.9541 C   0  0  0  0  0  0  0  0  0  0  0  0
   -0.3645   -0.6352    0.0068 N   0  0  0  0  0  0  0  0  0  0  0  0
    0.0535    1.5122    1.0900 C   0  0  0  0  0  0  0  0  0  0  0  0
    1.6074    3.0695    0.0990 C   0  0  0  0  0  0  0  0  0  0  0  0
   -1.7165   -0.7943    0.1646 C   0  0  0  0  0  0  0  0  0  0  0  0
    0.2938   -1.8285   -0.1541 C   0  0  0  0  0  0  0  0  0  0  0  0
    0.7172    2.7415    1.1178 C   0  0  0  0  0  0  0  0  0  0  0  0
    2.2378    4.2503    0.1320 F   0  0  0  0  0  0  0  0  0  0  0  0
   -2.5630    0.0711    0.3383 O   0  0  0  0  0  0  0  0  0  0  0  0
   -2.0300   -2.2612    0.1319 C   0  0  0  0  0  0  0  0  0  0  0  0
    1.4990   -2.0310   -0.1805 O   0  0  0  0  0  0  0  0  0  0  0  0
   -0.7300   -2.9168   -0.2850 C   0  0  0  0  0  0  0  0  0  0  0  0
    2.5289    2.4671   -1.7495 H   0  0  0  0  0  0  0  0  0  0  0  0
   -0.6426    1.2678    1.8893 H   0  0  0  0  0  0  0  0  0  0  0  0
    0.5435    3.4462    1.9259 H   0  0  0  0  0  0  0  0  0  0  0  0
   -2.3351   -2.5827    1.1327 H   0  0  0  0  0  0  0  0  0  0  0  0
   -2.8344   -2.4682   -0.5789 H   0  0  0  0  0  0  0  0  0  0  0  0
   -0.4796   -3.7631    0.3602 H   0  0  0  0  0  0  0  0  0  0  0  0
   -0.7653   -3.2499   -1.3269 H   0  0  0  0  0  0  0  0  0  0  0  0
  1  2  1  0  0  0  0
  2  3  2  0  0  0  0
  2  4  1  0  0  0  0
  3  5  1  0  0  0  0
  3  6  1  0  0  0  0
  4  7  2  0  0  0  0
  5  8  1  0  0  0  0
  5  9  1  0  0  0  0
  6 10  2  0  0  0  0
  7 11  1  0  0  0  0
  8 12  2  0  0  0  0
  8 13  1  0  0  0  0
  9 14  2  0  0  0  0
  9 15  1  0  0  0  0
  7 10  1  0  0  0  0
 13 15  1  0  0  0  0
  4 16  1  0  0  0  0
  6 17  1  0  0  0  0
 10 18  1  0  0  0  0
 13 19  1  0  0  0  0
 13 20  1  0  0  0  0
 15 21  1  0  0  0  0
 15 22  1  0  0  0  0
M  END
>  <Column 1>
O=C1CCC(=O)N1c1ccc(F)cc1F ZINC000000031532

>  <Total Molweight>
211.167

>  <cLogP>
1.2198

>  <cLogS>
-2.93

>  <H-Acceptors>
3

>  <H-Donors>
0

>  <Total Surface Area>
145.78

>  <MMFF94 Energy>
-10.083

$$$$
Compound 159
Actelion Java MolfileCreator 1.0

 27 29  0  0  0  0  0  0  0  0999 V2000
   -0.8144    1.2217   -4.3217 O   0  0  0  0  0  0  0  0  0  0  0  0
   -0.3783    1.2299   -3.1765 C   0  0  0  0  0  0  0  0  0  0  0  0
   -0.7114    0.2431   -2.2856 O   0  0  0  0  0  0  0  0  0  0  0  0
    0.5257    2.2943   -2.6885 C   0  0  0  0  0  0  0  0  0  0  0  0
   -0.2123    0.2455   -0.9622 C   0  0  0  0  0  0  0  0  0  0  0  0
    0.8977    3.3369   -3.5764 C   0  0  0  0  0  0  0  0  0  0  0  0
    0.9795    2.2638   -1.4263 C   0  0  0  0  0  0  0  0  0  0  0  0
    0.6042    1.2054   -0.5185 C   0  0  0  0  0  0  0  0  0  0  0  0
   -0.6359   -0.8591   -0.0998 C   0  0  0  0  0  0  0  0  0  0  0  0
    1.2322    4.2117   -4.2616 N   0  0  0  0  0  0  0  0  0  0  0  0
    1.1146    1.1795    0.8859 C   0  0  0  0  0  0  0  0  0  0  0  0
   -0.1682   -0.9044    1.2260 C   0  0  0  0  0  0  0  0  0  0  0  0
   -1.4947   -1.8658   -0.5712 C   0  0  0  0  0  0  0  0  0  0  0  0
    1.8653    2.0799    1.2615 O   0  0  0  0  0  0  0  0  0  0  0  0
    0.7056    0.1254    1.6962 N   0  0  0  0  0  0  0  0  0  0  0  0
   -0.5756   -1.9647    2.0519 C   0  0  0  0  0  0  0  0  0  0  0  0
   -1.8894   -2.9113    0.2617 C   0  0  0  0  0  0  0  0  0  0  0  0
    1.1945    0.0862    3.0673 C   0  0  0  0  0  0  0  0  0  0  0  0
   -1.4301   -2.9603    1.5720 C   0  0  0  0  0  0  0  0  0  0  0  0
    1.6457    3.0378   -1.0479 H   0  0  0  0  0  0  0  0  0  0  0  0
   -1.8677   -1.8488   -1.5934 H   0  0  0  0  0  0  0  0  0  0  0  0
   -0.2437   -2.0466    3.0824 H   0  0  0  0  0  0  0  0  0  0  0  0
   -2.5546   -3.6852   -0.1138 H   0  0  0  0  0  0  0  0  0  0  0  0
    0.3459    0.1294    3.7575 H   0  0  0  0  0  0  0  0  0  0  0  0
    1.7677   -0.8331    3.2229 H   0  0  0  0  0  0  0  0  0  0  0  0
    1.8513    0.9308    3.2937 H   0  0  0  0  0  0  0  0  0  0  0  0
   -1.7360   -3.7746    2.2248 H   0  0  0  0  0  0  0  0  0  0  0  0
  1  2  2  0  0  0  0
  2  3  1  0  0  0  0
  2  4  1  0  0  0  0
  3  5  1  0  0  0  0
  4  6  1  0  0  0  0
  4  7  2  0  0  0  0
  5  8  2  0  0  0  0
  5  9  1  0  0  0  0
  6 10  3  0  0  0  0
  8 11  1  0  0  0  0
  9 12  2  0  0  0  0
  9 13  1  0  0  0  0
 11 14  2  0  0  0  0
 11 15  1  0  0  0  0
 12 16  1  0  0  0  0
 13 17  2  0  0  0  0
 15 18  1  0  0  0  0
 16 19  2  0  0  0  0
  7  8  1  0  0  0  0
 12 15  1  0  0  0  0
 17 19  1  0  0  0  0
  7 20  1  0  0  0  0
 13 21  1  0  0  0  0
 16 22  1  0  0  0  0
 17 23  1  0  0  0  0
 18 24  1  0  0  0  0
 18 25  1  0  0  0  0
 18 26  1  0  0  0  0
 19 27  1  0  0  0  0
M  END
>  <Column 1>
Cn1c(=O)c2cc(C#N)c(=O)oc2c2ccccc21 ZINC000000031860

>  <Total Molweight>
252.229

>  <cLogP>
0.6112

>  <cLogS>
-2.585

>  <H-Acceptors>
5

>  <H-Donors>
0

>  <Total Surface Area>
183.66

>  <MMFF94 Energy>
33.761

$$$$
Compound 160
Actelion Java MolfileCreator 1.0

 26 28  0  0  0  0  0  0  0  0999 V2000
   -2.1786    1.2906   -0.8871 O   0  0  0  0  0  0  0  0  0  0  0  0
   -1.2154    0.6346   -0.4957 C   0  0  0  0  0  0  0  0  0  0  0  0
    0.0985    1.0724   -0.6009 N   0  0  0  0  0  0  0  0  0  0  0  0
   -1.4513   -0.6504    0.1845 C   0  0  0  0  0  0  0  0  0  0  0  0
    1.1874    0.3026   -0.1081 N   0  0  0  0  0  0  0  0  0  0  0  0
    0.3144    2.4869   -0.8767 C   0  0  0  0  0  0  0  0  0  0  0  0
   -0.3953   -1.3595    0.7402 C   0  0  0  0  0  0  0  0  0  0  0  0
   -2.7624   -1.1350    0.3146 C   0  0  0  0  0  0  0  0  0  0  0  0
    0.9913   -0.8913    0.5742 C   0  0  0  0  0  0  0  0  0  0  0  0
    2.5194    0.5608   -0.6394 C   0  0  0  0  0  0  0  0  0  0  0  0
    1.7190    2.8303   -1.2249 C   0  0  0  0  0  0  0  0  0  0  0  0
   -0.6440   -2.5602    1.4237 C   0  0  0  0  0  0  0  0  0  0  0  0
   -3.0080   -2.3286    0.9951 C   0  0  0  0  0  0  0  0  0  0  0  0
    1.9133   -1.5918    0.9871 O   0  0  0  0  0  0  0  0  0  0  0  0
    2.7193    1.9513   -1.1280 C   0  0  0  0  0  0  0  0  0  0  0  0
   -1.9482   -3.0410    1.5514 C   0  0  0  0  0  0  0  0  0  0  0  0
   -0.3411    2.7813   -1.7047 H   0  0  0  0  0  0  0  0  0  0  0  0
   -0.0032    3.0536    0.0064 H   0  0  0  0  0  0  0  0  0  0  0  0
   -3.5975   -0.5797   -0.1096 H   0  0  0  0  0  0  0  0  0  0  0  0
    2.7010   -0.1528   -1.4515 H   0  0  0  0  0  0  0  0  0  0  0  0
    3.2523    0.3502    0.1483 H   0  0  0  0  0  0  0  0  0  0  0  0
    1.9129    3.8394   -1.5759 H   0  0  0  0  0  0  0  0  0  0  0  0
    0.1796   -3.1277    1.8539 H   0  0  0  0  0  0  0  0  0  0  0  0
   -4.0260   -2.6991    1.0929 H   0  0  0  0  0  0  0  0  0  0  0  0
    3.7283    2.2421   -1.4043 H   0  0  0  0  0  0  0  0  0  0  0  0
   -2.1349   -3.9719    2.0819 H   0  0  0  0  0  0  0  0  0  0  0  0
  1  2  2  0  0  0  0
  2  3  1  0  0  0  0
  2  4  1  0  0  0  0
  3  5  1  0  0  0  0
  3  6  1  0  0  0  0
  4  7  2  0  0  0  0
  4  8  1  0  0  0  0
  5  9  1  0  0  0  0
  5 10  1  0  0  0  0
  6 11  1  0  0  0  0
  7 12  1  0  0  0  0
  8 13  2  0  0  0  0
  9 14  2  0  0  0  0
 10 15  1  0  0  0  0
 12 16  2  0  0  0  0
  7  9  1  0  0  0  0
 11 15  2  0  0  0  0
 13 16  1  0  0  0  0
  6 17  1  0  0  0  0
  6 18  1  0  0  0  0
  8 19  1  0  0  0  0
 10 20  1  0  0  0  0
 10 21  1  0  0  0  0
 11 22  1  0  0  0  0
 12 23  1  0  0  0  0
 13 24  1  0  0  0  0
 15 25  1  0  0  0  0
 16 26  1  0  0  0  0
M  END
>  <Column 1>
O=c1c2ccccc2c(=O)n2n1CC=CC2 ZINC000000031955

>  <Total Molweight>
214.223

>  <cLogP>
-0.0958

>  <cLogS>
-1.672

>  <H-Acceptors>
4

>  <H-Donors>
0

>  <Total Surface Area>
156.38

>  <MMFF94 Energy>
66.516

$$$$
Compound 161
Actelion Java MolfileCreator 1.0

 15 15  0  0  0  0  0  0  0  0999 V2000
   -1.2165    2.7590    0.3243 Br  0  0  0  0  0  0  0  0  0  0  0  0
   -0.2029    1.2130    0.0495 C   0  0  0  0  0  0  0  0  0  0  0  0
    1.2506    1.3995   -0.2709 C   0  0  0  0  0  0  0  0  0  0  0  0
   -0.6770   -0.0472    0.1171 C   0  0  0  0  0  0  0  0  0  0  0  0
    1.7808    2.5040   -0.3558 O   0  0  0  0  0  0  0  0  0  0  0  0
    1.9815    0.2602   -0.4698 N   0  0  0  0  0  0  0  0  0  0  0  0
    0.1669   -1.1152   -0.1050 N   0  0  0  0  0  0  0  0  0  0  0  0
   -2.0981   -0.4364    0.4240 C   0  0  0  0  0  0  0  0  0  0  0  0
    1.4951   -1.0085   -0.3997 C   0  0  0  0  0  0  0  0  0  0  0  0
    2.1977   -1.9949   -0.5875 O   0  0  0  0  0  0  0  0  0  0  0  0
    2.9599    0.3700   -0.6859 H   0  0  0  0  0  0  0  0  0  0  0  0
   -0.1852   -2.0657   -0.0552 H   0  0  0  0  0  0  0  0  0  0  0  0
   -2.1301   -1.0638    1.3218 H   0  0  0  0  0  0  0  0  0  0  0  0
   -2.5184   -1.0106   -0.4092 H   0  0  0  0  0  0  0  0  0  0  0  0
   -2.7618    0.4133    0.5990 H   0  0  0  0  0  0  0  0  0  0  0  0
  1  2  1  0  0  0  0
  2  3  1  0  0  0  0
  2  4  2  0  0  0  0
  3  5  2  0  0  0  0
  3  6  1  0  0  0  0
  4  7  1  0  0  0  0
  4  8  1  0  0  0  0
  6  9  1  0  0  0  0
  9 10  2  0  0  0  0
  7  9  1  0  0  0  0
  6 11  1  0  0  0  0
  7 12  1  0  0  0  0
  8 13  1  0  0  0  0
  8 14  1  0  0  0  0
  8 15  1  0  0  0  0
M  END
>  <Column 1>
Cc1[nH]c(=O)[nH]c(=O)c1Br ZINC000000032330

>  <Total Molweight>
205.011

>  <cLogP>
0.1782

>  <cLogS>
-2.341

>  <H-Acceptors>
4

>  <H-Donors>
2

>  <Total Surface Area>
112.23

>  <MMFF94 Energy>
-68.33

$$$$
Compound 162
Actelion Java MolfileCreator 1.0

 23 24  0  0  0  0  0  0  0  0999 V2000
   -1.7461   -2.4610    2.3816 O   0  0  0  0  0  0  0  0  0  0  0  0
   -0.8033   -2.1443    1.4431 C   0  0  0  0  0  0  0  0  0  0  0  0
    0.0627   -3.1551    1.0306 C   0  0  0  0  0  0  0  0  0  0  0  0
   -0.6981   -0.8660    0.9091 C   0  0  0  0  0  0  0  0  0  0  0  0
   -0.0493   -4.4074    1.5616 O   0  0  0  0  0  0  0  0  0  0  0  0
    1.0456   -2.9107    0.0818 C   0  0  0  0  0  0  0  0  0  0  0  0
    0.2923   -0.6135   -0.0491 C   0  0  0  0  0  0  0  0  0  0  0  0
    1.1633   -1.6309   -0.4638 C   0  0  0  0  0  0  0  0  0  0  0  0
    0.4402    0.7338   -0.6445 C   0  0  0  0  0  0  0  0  0  0  0  0
   -0.3375    1.7058   -0.2962 N   0  0  0  0  0  0  0  0  0  0  0  0
   -0.1404    2.9212   -0.8893 N   0  0  0  0  0  0  0  0  0  0  0  0
   -0.8950    4.0318   -0.6091 C   0  0  0  0  0  0  0  0  0  0  0  0
    0.7557    3.3628   -1.8299 C   0  0  0  0  0  0  0  0  0  0  0  0
   -0.4920    5.0603   -1.3188 N   0  0  0  0  0  0  0  0  0  0  0  0
    0.5572    4.6355   -2.0949 N   0  0  0  0  0  0  0  0  0  0  0  0
   -2.2728   -1.6643    2.5697 H   0  0  0  0  0  0  0  0  0  0  0  0
   -1.3679   -0.0720    1.2240 H   0  0  0  0  0  0  0  0  0  0  0  0
   -0.7933   -4.3439    2.1939 H   0  0  0  0  0  0  0  0  0  0  0  0
    1.7120   -3.7104   -0.2281 H   0  0  0  0  0  0  0  0  0  0  0  0
    1.9345   -1.4437   -1.2065 H   0  0  0  0  0  0  0  0  0  0  0  0
    1.2487    0.8310   -1.3891 H   0  0  0  0  0  0  0  0  0  0  0  0
   -1.7027    4.0181    0.1060 H   0  0  0  0  0  0  0  0  0  0  0  0
    1.5151    2.7492   -2.2859 H   0  0  0  0  0  0  0  0  0  0  0  0
  1  2  1  0  0  0  0
  2  3  2  0  0  0  0
  2  4  1  0  0  0  0
  3  5  1  0  0  0  0
  3  6  1  0  0  0  0
  4  7  2  0  0  0  0
  6  8  2  0  0  0  0
  7  9  1  0  0  0  0
  9 10  2  0  0  0  0
 10 11  1  0  0  0  0
 11 12  1  0  0  0  0
 11 13  1  0  0  0  0
 12 14  2  0  0  0  0
 13 15  2  0  0  0  0
  7  8  1  0  0  0  0
 14 15  1  0  0  0  0
  1 16  1  0  0  0  0
  4 17  1  0  0  0  0
  5 18  1  0  0  0  0
  6 19  1  0  0  0  0
  8 20  1  0  0  0  0
  9 21  1  0  0  0  0
 12 22  1  0  0  0  0
 13 23  1  0  0  0  0
M  END
>  <Column 1>
Oc1ccc(/C=N/n2cnnc2)cc1O ZINC000000032460

>  <Total Molweight>
204.189

>  <cLogP>
0.5369

>  <cLogS>
-3.718

>  <H-Acceptors>
6

>  <H-Donors>
2

>  <Total Surface Area>
157.2

>  <MMFF94 Energy>
29.022

$$$$
Compound 163
Actelion Java MolfileCreator 1.0

 23 25  0  0  0  0  0  0  0  0999 V2000
   -1.0473    1.5309   -0.6444 N   0  0  0  0  0  0  0  0  0  0  0  0
    0.1887    2.0336   -0.8488 N   0  0  0  0  0  0  0  0  0  0  0  0
   -1.0949    0.3213   -0.1382 C   0  0  0  0  0  0  0  0  0  0  0  0
    0.4056    3.2546   -1.3589 N   0  0  0  0  0  0  0  0  0  0  0  0
    1.3934    1.4351   -0.5925 C   0  0  0  0  0  0  0  0  0  0  0  0
   -2.3364   -0.2347    0.0887 N   0  0  0  0  0  0  0  0  0  0  0  0
    0.1500   -0.4854    0.2055 C   0  0  0  0  0  0  0  0  0  0  0  0
    1.7274    3.3859   -1.4075 N   0  0  0  0  0  0  0  0  0  0  0  0
    2.3606    2.2581   -0.9323 N   0  0  0  0  0  0  0  0  0  0  0  0
    1.4004    0.1091   -0.0373 C   0  0  0  0  0  0  0  0  0  0  0  0
   -3.5773    0.4490   -0.2034 C   0  0  0  0  0  0  0  0  0  0  0  0
    0.1021   -1.7756    0.7454 C   0  0  0  0  0  0  0  0  0  0  0  0
    2.5846   -0.5729    0.2539 C   0  0  0  0  0  0  0  0  0  0  0  0
    1.2897   -2.4561    1.0359 C   0  0  0  0  0  0  0  0  0  0  0  0
    2.5260   -1.8574    0.7913 C   0  0  0  0  0  0  0  0  0  0  0  0
   -2.4372   -1.1614    0.4762 H   0  0  0  0  0  0  0  0  0  0  0  0
   -3.6506    0.6841   -1.2697 H   0  0  0  0  0  0  0  0  0  0  0  0
   -4.4240   -0.1918    0.0609 H   0  0  0  0  0  0  0  0  0  0  0  0
   -3.6584    1.3733    0.3770 H   0  0  0  0  0  0  0  0  0  0  0  0
   -0.8345   -2.2797    0.9520 H   0  0  0  0  0  0  0  0  0  0  0  0
    3.5504   -0.1082    0.0640 H   0  0  0  0  0  0  0  0  0  0  0  0
    1.2510   -3.4593    1.4558 H   0  0  0  0  0  0  0  0  0  0  0  0
    3.4452   -2.3925    1.0197 H   0  0  0  0  0  0  0  0  0  0  0  0
  1  2  1  0  0  0  0
  1  3  2  0  0  0  0
  2  4  1  0  0  0  0
  2  5  1  0  0  0  0
  3  6  1  0  0  0  0
  3  7  1  0  0  0  0
  4  8  2  0  0  0  0
  5  9  2  0  0  0  0
  5 10  1  0  0  0  0
  6 11  1  0  0  0  0
  7 12  1  0  0  0  0
 10 13  1  0  0  0  0
 12 14  2  0  0  0  0
 13 15  2  0  0  0  0
  7 10  2  0  0  0  0
  8  9  1  0  0  0  0
 14 15  1  0  0  0  0
  6 16  1  0  0  0  0
 11 17  1  0  0  0  0
 11 18  1  0  0  0  0
 11 19  1  0  0  0  0
 12 20  1  0  0  0  0
 13 21  1  0  0  0  0
 14 22  1  0  0  0  0
 15 23  1  0  0  0  0
M  END
>  <Column 1>
CNc1nn2nnnc2c2ccccc12 ZINC000000032545

>  <Total Molweight>
200.205

>  <cLogP>
0.7746

>  <cLogS>
-4.967

>  <H-Acceptors>
6

>  <H-Donors>
1

>  <Total Surface Area>
151.87

>  <MMFF94 Energy>
19.402

$$$$
Compound 164
Actelion Java MolfileCreator 1.0

 44 45  0  0  0  0  0  0  0  0999 V2000
    2.1165   -1.6459   -3.2154 O   0  0  0  0  0  0  0  0  0  0  0  0
    2.7031   -2.4349   -2.4754 C   0  0  0  0  0  0  0  0  0  0  0  0
    2.3741   -2.6460   -1.1372 N   0  0  0  0  0  0  0  0  0  0  0  0
    3.7523   -3.1576   -2.9607 N   0  0  0  0  0  0  0  0  0  0  0  0
    3.0989   -3.5003   -0.3132 C   0  0  0  0  0  0  0  0  0  0  0  0
    1.2376   -1.8775   -0.6202 C   0  0  0  0  0  0  0  0  0  0  0  0
    4.5025   -4.0321   -2.2450 C   0  0  0  0  0  0  0  0  0  0  0  0
    2.8052   -3.6707    1.0123 N   0  0  0  0  0  0  0  0  0  0  0  0
    4.1311   -4.1817   -0.8349 C   0  0  0  0  0  0  0  0  0  0  0  0
    1.6814   -0.5387   -0.0197 C   0  0  0  0  0  0  0  0  0  0  0  0
    5.4387   -4.6604   -2.7244 O   0  0  0  0  0  0  0  0  0  0  0  0
    0.5113    0.2541    0.5088 C   0  0  0  0  0  0  0  0  0  0  0  0
   -0.3123    0.9695   -0.3742 C   0  0  0  0  0  0  0  0  0  0  0  0
    0.2190    0.2694    1.8752 C   0  0  0  0  0  0  0  0  0  0  0  0
   -1.4138    1.6936    0.0984 C   0  0  0  0  0  0  0  0  0  0  0  0
   -0.8767    0.9907    2.3568 C   0  0  0  0  0  0  0  0  0  0  0  0
   -2.2679    2.4158   -0.6983 O   0  0  0  0  0  0  0  0  0  0  0  0
   -1.6980    1.7049    1.4784 C   0  0  0  0  0  0  0  0  0  0  0  0
   -2.0140    2.4373   -2.1000 C   0  0  0  0  0  0  0  0  0  0  0  0
   -2.7947    2.4368    1.8620 O   0  0  0  0  0  0  0  0  0  0  0  0
   -3.0814    3.2958   -2.7551 C   0  0  0  0  0  0  0  0  0  0  0  0
   -3.0967    2.5074    3.2520 C   0  0  0  0  0  0  0  0  0  0  0  0
   -4.3237    3.3858    3.4202 C   0  0  0  0  0  0  0  0  0  0  0  0
    3.9910   -3.0213   -3.9301 H   0  0  0  0  0  0  0  0  0  0  0  0
    0.5310   -1.6925   -1.4398 H   0  0  0  0  0  0  0  0  0  0  0  0
    0.6752   -2.4791    0.1035 H   0  0  0  0  0  0  0  0  0  0  0  0
    2.0369   -3.1824    1.4478 H   0  0  0  0  0  0  0  0  0  0  0  0
    3.3490   -4.3111    1.5786 H   0  0  0  0  0  0  0  0  0  0  0  0
    4.7403   -4.8648   -0.2578 H   0  0  0  0  0  0  0  0  0  0  0  0
    2.4086   -0.7054    0.7849 H   0  0  0  0  0  0  0  0  0  0  0  0
    2.2106    0.0605   -0.7720 H   0  0  0  0  0  0  0  0  0  0  0  0
   -0.0709    0.9450   -1.4330 H   0  0  0  0  0  0  0  0  0  0  0  0
    0.8428   -0.2756    2.5802 H   0  0  0  0  0  0  0  0  0  0  0  0
   -1.0627    0.9746    3.4253 H   0  0  0  0  0  0  0  0  0  0  0  0
   -2.0691    1.4234   -2.5127 H   0  0  0  0  0  0  0  0  0  0  0  0
   -1.0301    2.8756   -2.3025 H   0  0  0  0  0  0  0  0  0  0  0  0
   -2.9319    3.3456   -3.8373 H   0  0  0  0  0  0  0  0  0  0  0  0
   -4.0789    2.8910   -2.5539 H   0  0  0  0  0  0  0  0  0  0  0  0
   -3.0620    4.3123   -2.3481 H   0  0  0  0  0  0  0  0  0  0  0  0
   -2.2604    2.9538    3.8023 H   0  0  0  0  0  0  0  0  0  0  0  0
   -3.3170    1.5082    3.6447 H   0  0  0  0  0  0  0  0  0  0  0  0
   -4.5996    3.4728    4.4749 H   0  0  0  0  0  0  0  0  0  0  0  0
   -4.1384    4.3879    3.0191 H   0  0  0  0  0  0  0  0  0  0  0  0
   -5.1727    2.9725    2.8654 H   0  0  0  0  0  0  0  0  0  0  0  0
  1  2  2  0  0  0  0
  2  3  1  0  0  0  0
  2  4  1  0  0  0  0
  3  5  1  0  0  0  0
  3  6  1  0  0  0  0
  4  7  1  0  0  0  0
  5  8  1  0  0  0  0
  5  9  2  0  0  0  0
  6 10  1  0  0  0  0
  7 11  2  0  0  0  0
 10 12  1  0  0  0  0
 12 13  2  0  0  0  0
 12 14  1  0  0  0  0
 13 15  1  0  0  0  0
 14 16  2  0  0  0  0
 15 17  1  0  0  0  0
 15 18  2  0  0  0  0
 17 19  1  0  0  0  0
 18 20  1  0  0  0  0
 19 21  1  0  0  0  0
 20 22  1  0  0  0  0
 22 23  1  0  0  0  0
  7  9  1  0  0  0  0
 16 18  1  0  0  0  0
  4 24  1  0  0  0  0
  6 25  1  0  0  0  0
  6 26  1  0  0  0  0
  8 27  1  0  0  0  0
  8 28  1  0  0  0  0
  9 29  1  0  0  0  0
 10 30  1  0  0  0  0
 10 31  1  0  0  0  0
 13 32  1  0  0  0  0
 14 33  1  0  0  0  0
 16 34  1  0  0  0  0
 19 35  1  0  0  0  0
 19 36  1  0  0  0  0
 21 37  1  0  0  0  0
 21 38  1  0  0  0  0
 21 39  1  0  0  0  0
 22 40  1  0  0  0  0
 22 41  1  0  0  0  0
 23 42  1  0  0  0  0
 23 43  1  0  0  0  0
 23 44  1  0  0  0  0
M  END
>  <Column 1>
CCOc1ccc(CCn2c(N)cc(=O)[nH]c2=O)cc1OCC ZINC000000032782

>  <Total Molweight>
319.36

>  <cLogP>
1.5248

>  <cLogS>
-4.028

>  <H-Acceptors>
7

>  <H-Donors>
2

>  <Total Surface Area>
249.81

>  <MMFF94 Energy>
-80.484

$$$$
Compound 165
Actelion Java MolfileCreator 1.0

 43 46  0  0  0  0  0  0  0  0999 V2000
   -2.1472   -3.7400    1.5902 O   0  0  0  0  0  0  0  0  0  0  0  0
   -0.9853   -3.5150    1.2911 C   0  0  0  0  0  0  0  0  0  0  0  0
   -0.4146   -2.4202    0.6589 N   0  0  0  0  0  0  0  0  0  0  0  0
    0.0785   -4.3870    1.5339 N   0  0  0  0  0  0  0  0  0  0  0  0
   -0.8744   -1.2433    0.1175 C   0  0  0  0  0  0  0  0  0  0  0  0
    0.8852   -2.7275    0.5314 C   0  0  0  0  0  0  0  0  0  0  0  0
    1.2456   -3.8718    1.0393 N   0  0  0  0  0  0  0  0  0  0  0  0
   -0.0397   -0.4817   -0.5234 N   0  0  0  0  0  0  0  0  0  0  0  0
   -2.2014   -0.8665    0.2242 N   0  0  0  0  0  0  0  0  0  0  0  0
    1.7553   -1.9067   -0.0922 N   0  0  0  0  0  0  0  0  0  0  0  0
    1.2864   -0.8158   -0.6144 C   0  0  0  0  0  0  0  0  0  0  0  0
   -2.8464   -0.0937   -0.8390 C   0  0  0  0  0  0  0  0  0  0  0  0
   -2.9219   -0.8601    1.4984 C   0  0  0  0  0  0  0  0  0  0  0  0
    2.1278    0.0553   -1.2768 N   0  0  0  0  0  0  0  0  0  0  0  0
   -2.9994    1.3621   -0.4095 C   0  0  0  0  0  0  0  0  0  0  0  0
   -3.1057    0.5819    1.9794 C   0  0  0  0  0  0  0  0  0  0  0  0
    3.5723   -0.1530   -1.3429 C   0  0  0  0  0  0  0  0  0  0  0  0
    1.6835    1.3434   -1.7999 C   0  0  0  0  0  0  0  0  0  0  0  0
   -3.7589    1.4579    0.9122 C   0  0  0  0  0  0  0  0  0  0  0  0
    4.2685    0.9212   -0.5066 C   0  0  0  0  0  0  0  0  0  0  0  0
    2.3217    2.4620   -0.9760 C   0  0  0  0  0  0  0  0  0  0  0  0
    3.8452    2.3246   -0.9455 C   0  0  0  0  0  0  0  0  0  0  0  0
    0.0231   -5.2940    1.9770 H   0  0  0  0  0  0  0  0  0  0  0  0
   -3.8333   -0.5267   -1.0446 H   0  0  0  0  0  0  0  0  0  0  0  0
   -2.2842   -0.1535   -1.7781 H   0  0  0  0  0  0  0  0  0  0  0  0
   -3.8961   -1.3461    1.3711 H   0  0  0  0  0  0  0  0  0  0  0  0
   -2.3810   -1.4004    2.2801 H   0  0  0  0  0  0  0  0  0  0  0  0
   -3.5306    1.9257   -1.1843 H   0  0  0  0  0  0  0  0  0  0  0  0
   -2.0100    1.8217   -0.2942 H   0  0  0  0  0  0  0  0  0  0  0  0
   -3.7123    0.5938    2.8918 H   0  0  0  0  0  0  0  0  0  0  0  0
   -2.1267    1.0050    2.2381 H   0  0  0  0  0  0  0  0  0  0  0  0
    3.9000   -0.0841   -2.3875 H   0  0  0  0  0  0  0  0  0  0  0  0
    3.8754   -1.1446   -0.9910 H   0  0  0  0  0  0  0  0  0  0  0  0
    1.9897    1.4321   -2.8496 H   0  0  0  0  0  0  0  0  0  0  0  0
    0.5946    1.4571   -1.7892 H   0  0  0  0  0  0  0  0  0  0  0  0
   -4.7973    1.1379    0.7623 H   0  0  0  0  0  0  0  0  0  0  0  0
   -3.7883    2.4993    1.2510 H   0  0  0  0  0  0  0  0  0  0  0  0
    5.3553    0.8170   -0.5954 H   0  0  0  0  0  0  0  0  0  0  0  0
    4.0141    0.7831    0.5518 H   0  0  0  0  0  0  0  0  0  0  0  0
    2.0457    3.4366   -1.3932 H   0  0  0  0  0  0  0  0  0  0  0  0
    1.9358    2.4267    0.0505 H   0  0  0  0  0  0  0  0  0  0  0  0
    4.2476    2.5284   -1.9454 H   0  0  0  0  0  0  0  0  0  0  0  0
    4.2733    3.0718   -0.2683 H   0  0  0  0  0  0  0  0  0  0  0  0
  1  2  2  0  0  0  0
  2  3  1  0  0  0  0
  2  4  1  0  0  0  0
  3  5  1  0  0  0  0
  3  6  1  0  0  0  0
  4  7  1  0  0  0  0
  5  8  2  0  0  0  0
  5  9  1  0  0  0  0
  6 10  1  0  0  0  0
  8 11  1  0  0  0  0
  9 12  1  0  0  0  0
  9 13  1  0  0  0  0
 11 14  1  0  0  0  0
 12 15  1  0  0  0  0
 13 16  1  0  0  0  0
 14 17  1  0  0  0  0
 14 18  1  0  0  0  0
 15 19  1  0  0  0  0
 17 20  1  0  0  0  0
 18 21  1  0  0  0  0
 20 22  1  0  0  0  0
  6  7  2  0  0  0  0
 10 11  2  0  0  0  0
 16 19  1  0  0  0  0
 21 22  1  0  0  0  0
  4 23  1  0  0  0  0
 12 24  1  0  0  0  0
 12 25  1  0  0  0  0
 13 26  1  0  0  0  0
 13 27  1  0  0  0  0
 15 28  1  0  0  0  0
 15 29  1  0  0  0  0
 16 30  1  0  0  0  0
 16 31  1  0  0  0  0
 17 32  1  0  0  0  0
 17 33  1  0  0  0  0
 18 34  1  0  0  0  0
 18 35  1  0  0  0  0
 19 36  1  0  0  0  0
 19 37  1  0  0  0  0
 20 38  1  0  0  0  0
 20 39  1  0  0  0  0
 21 40  1  0  0  0  0
 21 41  1  0  0  0  0
 22 42  1  0  0  0  0
 22 43  1  0  0  0  0
M  END
>  <Column 1>
O=c1[nH]nc2nc(N3CCCCC3)nc(N3CCCCC3)n12 ZINC000000032938

>  <Total Molweight>
303.369

>  <cLogP>
1.9418

>  <cLogS>
-4.002

>  <H-Acceptors>
8

>  <H-Donors>
1

>  <Total Surface Area>
226.12

>  <MMFF94 Energy>
-171.9

$$$$
Compound 166
Actelion Java MolfileCreator 1.0

 27 28  0  0  0  0  0  0  0  0999 V2000
    1.9036   -1.6655    1.0308 O   0  0  0  0  0  0  0  0  0  0  0  0
    1.5427   -0.8995    0.1357 C   0  0  0  0  0  0  0  0  0  0  0  0
    2.4162   -0.6276   -0.8769 N   0  0  0  0  0  0  0  0  0  0  0  0
    0.1681   -0.2167    0.1393 C   0  0  0  0  0  0  0  0  0  0  0  0
    2.1179    0.1033   -2.0816 C   0  0  0  0  0  0  0  0  0  0  0  0
    0.1690    0.9213    1.1701 C   0  0  0  0  0  0  0  0  0  0  0  0
   -0.1948    0.3996   -1.2349 C   0  0  0  0  0  0  0  0  0  0  0  0
   -0.8823   -1.2930    0.5164 C   0  0  0  0  0  0  0  0  0  0  0  0
    0.9919    1.0977   -1.8908 C   0  0  0  0  0  0  0  0  0  0  0  0
    1.1152    1.6957    1.3125 O   0  0  0  0  0  0  0  0  0  0  0  0
   -0.9778    1.1645    1.8761 N   0  0  0  0  0  0  0  0  0  0  0  0
   -2.2385   -0.6831    0.8480 C   0  0  0  0  0  0  0  0  0  0  0  0
   -2.0824    0.2499    2.0319 C   0  0  0  0  0  0  0  0  0  0  0  0
    3.3127   -1.0913   -0.7866 H   0  0  0  0  0  0  0  0  0  0  0  0
    3.0334    0.6085   -2.4044 H   0  0  0  0  0  0  0  0  0  0  0  0
    1.8543   -0.6355   -2.8463 H   0  0  0  0  0  0  0  0  0  0  0  0
   -0.5520   -0.3841   -1.9159 H   0  0  0  0  0  0  0  0  0  0  0  0
   -1.0113    1.1255   -1.1353 H   0  0  0  0  0  0  0  0  0  0  0  0
   -0.5467   -1.8723    1.3871 H   0  0  0  0  0  0  0  0  0  0  0  0
   -0.9931   -2.0168   -0.3009 H   0  0  0  0  0  0  0  0  0  0  0  0
    1.3288    1.9379   -1.2739 H   0  0  0  0  0  0  0  0  0  0  0  0
    0.6952    1.5136   -2.8601 H   0  0  0  0  0  0  0  0  0  0  0  0
   -0.9090    1.9589    2.5023 H   0  0  0  0  0  0  0  0  0  0  0  0
   -2.9601   -1.4717    1.0888 H   0  0  0  0  0  0  0  0  0  0  0  0
   -2.6368   -0.1398   -0.0159 H   0  0  0  0  0  0  0  0  0  0  0  0
   -2.9905    0.8408    2.1864 H   0  0  0  0  0  0  0  0  0  0  0  0
   -1.8941   -0.3222    2.9472 H   0  0  0  0  0  0  0  0  0  0  0  0
  1  2  2  0  0  0  0
  2  3  1  0  0  0  0
  2  4  1  0  0  0  0
  3  5  1  0  0  0  0
  4  6  1  0  0  0  0
  4  7  1  0  0  0  0
  4  8  1  0  0  0  0
  5  9  1  0  0  0  0
  6 10  2  0  0  0  0
  6 11  1  0  0  0  0
  8 12  1  0  0  0  0
 11 13  1  0  0  0  0
  7  9  1  0  0  0  0
 12 13  1  0  0  0  0
  3 14  1  0  0  0  0
  5 15  1  0  0  0  0
  5 16  1  0  0  0  0
  7 17  1  0  0  0  0
  7 18  1  0  0  0  0
  8 19  1  0  0  0  0
  8 20  1  0  0  0  0
  9 21  1  0  0  0  0
  9 22  1  0  0  0  0
 11 23  1  0  0  0  0
 12 24  1  0  0  0  0
 12 25  1  0  0  0  0
 13 26  1  0  0  0  0
 13 27  1  0  0  0  0
M  END
>  <Column 1>
O=C1NCCCC12CCCNC2=O ZINC000000032975

>  <Total Molweight>
182.222

>  <cLogP>
-0.3618

>  <cLogS>
-1.297

>  <H-Acceptors>
4

>  <H-Donors>
2

>  <Total Surface Area>
137.89

>  <MMFF94 Energy>
-28.273

$$$$
Compound 167
Actelion Java MolfileCreator 1.0

 25 26  0  0  0  0  0  0  0  0999 V2000
   -2.4514    1.3437    0.4741 O   0  0  0  0  0  0  0  0  0  0  0  0
   -1.6467    1.9226   -0.2687 N   0  0  0  0  0  0  0  0  0  0  0  0
   -1.9296    2.5270   -1.3127 O   0  0  0  0  0  0  0  0  0  0  0  0
   -0.2607    1.9649    0.1637 C   0  0  0  0  0  0  0  0  0  0  0  0
    0.4802    0.7787    0.3135 C   0  0  0  0  0  0  0  0  0  0  0  0
    0.2618    3.2311    0.4784 C   0  0  0  0  0  0  0  0  0  0  0  0
   -0.0211   -0.5506   -0.0645 C   0  0  0  0  0  0  0  0  0  0  0  0
    1.7855    0.9214    0.8295 C   0  0  0  0  0  0  0  0  0  0  0  0
    1.5591    3.3302    0.9718 C   0  0  0  0  0  0  0  0  0  0  0  0
   -0.7769   -0.6307   -1.1551 N   0  0  0  0  0  0  0  0  0  0  0  0
    0.3656   -1.5872    0.6762 N   0  0  0  0  0  0  0  0  0  0  0  0
    2.3176    2.1763    1.1530 C   0  0  0  0  0  0  0  0  0  0  0  0
   -1.1804   -1.8513   -1.4628 C   0  0  0  0  0  0  0  0  0  0  0  0
   -0.0956   -2.7579    0.2697 C   0  0  0  0  0  0  0  0  0  0  0  0
   -0.8681   -2.9454   -0.7879 N   0  0  0  0  0  0  0  0  0  0  0  0
   -1.9803   -1.9879   -2.5602 N   0  0  0  0  0  0  0  0  0  0  0  0
    0.2552   -3.8584    0.9976 N   0  0  0  0  0  0  0  0  0  0  0  0
   -0.3386    4.1297    0.3507 H   0  0  0  0  0  0  0  0  0  0  0  0
    2.4108    0.0395    0.9723 H   0  0  0  0  0  0  0  0  0  0  0  0
    1.9771    4.3027    1.2220 H   0  0  0  0  0  0  0  0  0  0  0  0
    3.3309    2.2483    1.5433 H   0  0  0  0  0  0  0  0  0  0  0  0
   -2.2738   -1.1540   -3.0400 H   0  0  0  0  0  0  0  0  0  0  0  0
   -2.3366   -2.9019   -2.7777 H   0  0  0  0  0  0  0  0  0  0  0  0
   -0.1135   -4.7492    0.7130 H   0  0  0  0  0  0  0  0  0  0  0  0
    0.8113   -3.7292    1.8242 H   0  0  0  0  0  0  0  0  0  0  0  0
  1  2  2  0  0  0  0
  2  3  1  0  0  0  0
  2  4  1  0  0  0  0
  4  5  2  0  0  0  0
  4  6  1  0  0  0  0
  5  7  1  0  0  0  0
  5  8  1  0  0  0  0
  6  9  2  0  0  0  0
  7 10  2  0  0  0  0
  7 11  1  0  0  0  0
  8 12  2  0  0  0  0
 10 13  1  0  0  0  0
 11 14  2  0  0  0  0
 13 15  2  0  0  0  0
 13 16  1  0  0  0  0
 14 17  1  0  0  0  0
  9 12  1  0  0  0  0
 14 15  1  0  0  0  0
  6 18  1  0  0  0  0
  8 19  1  0  0  0  0
  9 20  1  0  0  0  0
 12 21  1  0  0  0  0
 16 22  1  0  0  0  0
 16 23  1  0  0  0  0
 17 24  1  0  0  0  0
 17 25  1  0  0  0  0
M  CHG  2   2   1   3  -1
M  END
>  <Column 1>
Nc1nc(N)nc(-c2ccccc2[N+](=O)[O-])n1 ZINC000000033068

>  <Total Molweight>
232.203

>  <cLogP>
0.0785

>  <cLogS>
-4.288

>  <H-Acceptors>
7

>  <H-Donors>
2

>  <Total Surface Area>
170.01

>  <MMFF94 Energy>
-198.58

$$$$
Compound 168
Actelion Java MolfileCreator 1.0

 27 28  0  0  0  0  0  0  0  0999 V2000
    5.4517   -1.9216    1.5210 Cl  0  0  0  0  0  0  0  0  0  0  0  0
    3.8886   -1.3755    1.0598 C   0  0  0  0  0  0  0  0  0  0  0  0
    2.8231   -1.4905    1.9414 C   0  0  0  0  0  0  0  0  0  0  0  0
    3.6885   -0.8182   -0.1952 C   0  0  0  0  0  0  0  0  0  0  0  0
    1.5504   -1.0430    1.5602 C   0  0  0  0  0  0  0  0  0  0  0  0
    2.4114   -0.3752   -0.5666 C   0  0  0  0  0  0  0  0  0  0  0  0
    1.3039   -0.4728    0.2970 C   0  0  0  0  0  0  0  0  0  0  0  0
    0.0415   -0.0319   -0.0760 N   0  0  0  0  0  0  0  0  0  0  0  0
   -0.3011    0.1713   -1.4616 C   0  0  0  0  0  0  0  0  0  0  0  0
   -0.9826    0.2272    0.9059 C   0  0  0  0  0  0  0  0  0  0  0  0
   -1.7149    0.2215   -1.6676 N   0  0  0  0  0  0  0  0  0  0  0  0
   -2.0333    1.0506    0.3886 N   0  0  0  0  0  0  0  0  0  0  0  0
   -2.5669    0.8814   -0.8463 C   0  0  0  0  0  0  0  0  0  0  0  0
   -3.7129    1.2574   -1.3187 N   0  0  0  0  0  0  0  0  0  0  0  0
   -4.5472    1.9467   -0.5185 N   0  0  0  0  0  0  0  0  0  0  0  0
   -4.5871    1.7254    0.7050 O   0  0  0  0  0  0  0  0  0  0  0  0
   -5.2788    2.7884   -1.0573 O   0  0  0  0  0  0  0  0  0  0  0  0
    2.9664   -1.9295    2.9252 H   0  0  0  0  0  0  0  0  0  0  0  0
    4.5164   -0.7178   -0.8919 H   0  0  0  0  0  0  0  0  0  0  0  0
    0.7477   -1.1755    2.2811 H   0  0  0  0  0  0  0  0  0  0  0  0
    2.3148    0.0723   -1.5523 H   0  0  0  0  0  0  0  0  0  0  0  0
    0.1444    1.1059   -1.8234 H   0  0  0  0  0  0  0  0  0  0  0  0
    0.0912   -0.6441   -2.0808 H   0  0  0  0  0  0  0  0  0  0  0  0
   -1.4114   -0.7190    1.2576 H   0  0  0  0  0  0  0  0  0  0  0  0
   -0.5625    0.7447    1.7766 H   0  0  0  0  0  0  0  0  0  0  0  0
   -2.0415    0.0362   -2.6063 H   0  0  0  0  0  0  0  0  0  0  0  0
   -2.6183    1.4907    1.0939 H   0  0  0  0  0  0  0  0  0  0  0  0
  1  2  1  0  0  0  0
  2  3  2  0  0  0  0
  2  4  1  0  0  0  0
  3  5  1  0  0  0  0
  4  6  2  0  0  0  0
  5  7  2  0  0  0  0
  7  8  1  0  0  0  0
  8  9  1  0  0  0  0
  8 10  1  0  0  0  0
  9 11  1  0  0  0  0
 10 12  1  0  0  0  0
 11 13  1  0  0  0  0
 13 14  2  0  0  0  0
 14 15  1  0  0  0  0
 15 16  2  0  0  0  0
 15 17  1  0  0  0  0
  6  7  1  0  0  0  0
 12 13  1  0  0  0  0
  3 18  1  0  0  0  0
  4 19  1  0  0  0  0
  5 20  1  0  0  0  0
  6 21  1  0  0  0  0
  9 22  1  0  0  0  0
  9 23  1  0  0  0  0
 10 24  1  0  0  0  0
 10 25  1  0  0  0  0
 11 26  1  0  0  0  0
 12 27  1  0  0  0  0
M  CHG  2  15   1  17  -1
M  END
>  <Column 1>
O=[N+]([O-])N=C1NCN(c2ccc(Cl)cc2)CN1 ZINC000000033112

>  <Total Molweight>
255.664

>  <cLogP>
1.9082

>  <cLogS>
-4.823

>  <H-Acceptors>
6

>  <H-Donors>
2

>  <Total Surface Area>
182.56

>  <MMFF94 Energy>
-205.86

$$$$
Compound 169
Actelion Java MolfileCreator 1.0

 32 34  0  0  1  0  0  0  0  0999 V2000
   -2.0907   -0.8359    0.5015 S   0  0  0  0  0  0  0  0  0  0  0  0
   -1.9055   -2.2393    0.1949 O   0  0  0  0  0  0  0  0  0  0  0  0
   -3.1531   -0.3941    1.3747 O   0  0  0  0  0  0  0  0  0  0  0  0
   -0.6495   -0.2690    1.1173 N   0  0  0  0  0  0  0  0  0  0  0  0
   -2.2576    0.0287   -1.0146 C   0  0  0  0  0  0  0  0  0  0  0  0
    0.6141   -0.8936    0.7131 C   0  0  0  0  0  0  0  0  0  0  0  0
   -2.1895    1.4380   -1.1007 C   0  0  0  0  0  0  0  0  0  0  0  0
   -2.4629   -0.6778   -2.2213 C   0  0  0  0  0  0  0  0  0  0  0  0
    1.7797    0.0021    1.1650 C   0  0  0  0  0  0  0  0  0  0  0  0
   -1.9952    2.3231   -0.1087 N   0  0  0  0  0  0  0  0  0  0  0  0
   -2.3374    2.1135   -2.4464 C   0  0  0  0  0  0  0  0  0  0  0  0
   -2.6004   -0.0368   -3.4737 C   0  0  0  0  0  0  0  0  0  0  0  0
    1.7669    0.0893    2.6086 O   0  0  0  0  0  0  0  0  0  0  0  0
    3.1387   -0.5642    0.7803 C   0  0  0  0  0  0  0  0  0  0  0  0
   -2.0177    3.8343   -0.7881 S   0  0  0  0  0  0  0  0  0  0  0  0
   -2.2496    3.4506   -2.3854 N   0  0  0  0  0  0  0  0  0  0  0  0
   -2.5432    1.3583   -3.6268 C   0  0  0  0  0  0  0  0  0  0  0  0
    2.9573   -0.5261    3.1188 C   0  0  0  0  0  0  0  0  0  0  0  0
    3.5233   -1.3675    1.9977 C   0  0  0  0  0  0  0  0  0  0  0  0
   -0.7038    0.1011    2.0690 H   0  0  0  0  0  0  0  0  0  0  0  0
    0.6819   -1.8724    1.2003 H   0  0  0  0  0  0  0  0  0  0  0  0
    0.6416   -1.0237   -0.3734 H   0  0  0  0  0  0  0  0  0  0  0  0
   -2.5256   -1.7676   -2.1957 H   0  0  0  0  0  0  0  0  0  0  0  0
    1.6481    1.0125    0.7609 H   0  0  0  0  0  0  0  0  0  0  0  0
   -2.7612   -0.6525   -4.3598 H   0  0  0  0  0  0  0  0  0  0  0  0
    3.1309   -1.1480   -0.1443 H   0  0  0  0  0  0  0  0  0  0  0  0
    3.8532    0.2582    0.6510 H   0  0  0  0  0  0  0  0  0  0  0  0
   -2.6516    1.8384   -4.5924 H   0  0  0  0  0  0  0  0  0  0  0  0
    2.7161   -1.1151    4.0079 H   0  0  0  0  0  0  0  0  0  0  0  0
    3.6507    0.2721    3.4048 H   0  0  0  0  0  0  0  0  0  0  0  0
    4.5996   -1.5334    2.0912 H   0  0  0  0  0  0  0  0  0  0  0  0
    3.0267   -2.3443    1.9727 H   0  0  0  0  0  0  0  0  0  0  0  0
  1  2  2  0  0  0  0
  1  3  2  0  0  0  0
  1  4  1  0  0  0  0
  1  5  1  0  0  0  0
  4  6  1  0  0  0  0
  5  7  1  0  0  0  0
  5  8  2  0  0  0  0
  6  9  1  0  0  0  0
  7 10  2  0  0  0  0
  7 11  1  0  0  0  0
  8 12  1  0  0  0  0
  9 13  1  0  0  0  0
  9 14  1  0  0  0  0
 10 15  1  0  0  0  0
 11 16  2  0  0  0  0
 11 17  1  0  0  0  0
 13 18  1  0  0  0  0
 14 19  1  0  0  0  0
 12 17  2  0  0  0  0
 15 16  1  0  0  0  0
 18 19  1  0  0  0  0
  4 20  1  0  0  0  0
  6 21  1  0  0  0  0
  6 22  1  0  0  0  0
  8 23  1  0  0  0  0
  9 24  1  0  0  0  0
 12 25  1  0  0  0  0
 14 26  1  0  0  0  0
 14 27  1  0  0  0  0
 17 28  1  0  0  0  0
 18 29  1  0  0  0  0
 18 30  1  0  0  0  0
 19 31  1  0  0  0  0
 19 32  1  0  0  0  0
M  END
>  <Column 1>
O=S(=O)(NC[C@@H]1CCCO1)c1cccc2nsnc12 ZINC000000033207

>  <Total Molweight>
299.374

>  <cLogP>
1.6014

>  <cLogS>
1.514

>  <H-Acceptors>
6

>  <H-Donors>
1

>  <Total Surface Area>
205.4

>  <MMFF94 Energy>
-36.504

$$$$
Compound 170
Actelion Java MolfileCreator 1.0

 38 41  0  0  0  0  0  0  0  0999 V2000
   -0.9713    1.2142   -2.5106 S   0  0  0  0  0  0  0  0  0  0  0  0
   -0.5166   -0.1735   -1.5730 C   0  0  0  0  0  0  0  0  0  0  0  0
   -0.6748    2.4820   -1.3712 C   0  0  0  0  0  0  0  0  0  0  0  0
    0.5536   -0.2515   -0.8005 N   0  0  0  0  0  0  0  0  0  0  0  0
   -1.2218   -1.3553   -1.5912 N   0  0  0  0  0  0  0  0  0  0  0  0
   -1.3373    3.6137   -1.3033 N   0  0  0  0  0  0  0  0  0  0  0  0
    0.3403    2.4308   -0.4579 N   0  0  0  0  0  0  0  0  0  0  0  0
    0.5259   -1.5204   -0.3100 C   0  0  0  0  0  0  0  0  0  0  0  0
   -0.5431   -2.2239   -0.7731 C   0  0  0  0  0  0  0  0  0  0  0  0
   -2.4389   -1.6756   -2.2995 C   0  0  0  0  0  0  0  0  0  0  0  0
   -0.7359    4.3146   -0.2845 C   0  0  0  0  0  0  0  0  0  0  0  0
    0.3196    3.5928    0.2666 C   0  0  0  0  0  0  0  0  0  0  0  0
    1.4440   -2.0745    0.5488 N   0  0  0  0  0  0  0  0  0  0  0  0
   -0.7965   -3.5775   -0.4143 C   0  0  0  0  0  0  0  0  0  0  0  0
   -1.0384    5.5830    0.2316 C   0  0  0  0  0  0  0  0  0  0  0  0
    1.1043    4.0621    1.3214 C   0  0  0  0  0  0  0  0  0  0  0  0
    1.2791   -3.3976    0.9639 C   0  0  0  0  0  0  0  0  0  0  0  0
    2.5780   -1.2961    1.0128 C   0  0  0  0  0  0  0  0  0  0  0  0
   -1.7562   -4.2092   -0.8444 O   0  0  0  0  0  0  0  0  0  0  0  0
    0.1590   -4.0934    0.4655 N   0  0  0  0  0  0  0  0  0  0  0  0
   -0.2661    6.0797    1.2898 C   0  0  0  0  0  0  0  0  0  0  0  0
    0.7855    5.3296    1.8231 C   0  0  0  0  0  0  0  0  0  0  0  0
    2.0763   -3.9421    1.7329 O   0  0  0  0  0  0  0  0  0  0  0  0
    0.0076   -5.4658    0.9098 C   0  0  0  0  0  0  0  0  0  0  0  0
    0.9565    1.6375   -0.3352 H   0  0  0  0  0  0  0  0  0  0  0  0
   -3.1770   -2.0319   -1.5759 H   0  0  0  0  0  0  0  0  0  0  0  0
   -2.8417   -0.8001   -2.8094 H   0  0  0  0  0  0  0  0  0  0  0  0
   -2.2131   -2.4536   -3.0334 H   0  0  0  0  0  0  0  0  0  0  0  0
   -1.8560    6.1595   -0.1864 H   0  0  0  0  0  0  0  0  0  0  0  0
    1.9210    3.4808    1.7344 H   0  0  0  0  0  0  0  0  0  0  0  0
    3.2135   -1.8644    1.6967 H   0  0  0  0  0  0  0  0  0  0  0  0
    3.1779   -0.9916    0.1493 H   0  0  0  0  0  0  0  0  0  0  0  0
    2.2107   -0.4065    1.5345 H   0  0  0  0  0  0  0  0  0  0  0  0
   -0.4905    7.0620    1.6992 H   0  0  0  0  0  0  0  0  0  0  0  0
    1.3694    5.7395    2.6451 H   0  0  0  0  0  0  0  0  0  0  0  0
   -0.0433   -5.4828    2.0035 H   0  0  0  0  0  0  0  0  0  0  0  0
    0.8882   -6.0375    0.5992 H   0  0  0  0  0  0  0  0  0  0  0  0
   -0.8879   -5.9437    0.5052 H   0  0  0  0  0  0  0  0  0  0  0  0
  1  2  1  0  0  0  0
  1  3  1  0  0  0  0
  2  4  2  0  0  0  0
  2  5  1  0  0  0  0
  3  6  2  0  0  0  0
  3  7  1  0  0  0  0
  4  8  1  0  0  0  0
  5  9  1  0  0  0  0
  5 10  1  0  0  0  0
  6 11  1  0  0  0  0
  7 12  1  0  0  0  0
  8 13  1  0  0  0  0
  9 14  1  0  0  0  0
 11 15  1  0  0  0  0
 12 16  1  0  0  0  0
 13 17  1  0  0  0  0
 13 18  1  0  0  0  0
 14 19  2  0  0  0  0
 14 20  1  0  0  0  0
 15 21  2  0  0  0  0
 16 22  2  0  0  0  0
 17 23  2  0  0  0  0
 20 24  1  0  0  0  0
  8  9  2  0  0  0  0
 11 12  2  0  0  0  0
 17 20  1  0  0  0  0
 21 22  1  0  0  0  0
  7 25  1  0  0  0  0
 10 26  1  0  0  0  0
 10 27  1  0  0  0  0
 10 28  1  0  0  0  0
 15 29  1  0  0  0  0
 16 30  1  0  0  0  0
 18 31  1  0  0  0  0
 18 32  1  0  0  0  0
 18 33  1  0  0  0  0
 21 34  1  0  0  0  0
 22 35  1  0  0  0  0
 24 36  1  0  0  0  0
 24 37  1  0  0  0  0
 24 38  1  0  0  0  0
M  END
>  <Column 1>
Cn1c(=O)c2c(nc(Sc3nc4ccccc4[nH]3)n2C)n(C)c1=O ZINC000000033396

>  <Total Molweight>
342.382

>  <cLogP>
1.7265

>  <cLogS>
-2.679

>  <H-Acceptors>
8

>  <H-Donors>
1

>  <Total Surface Area>
240.78

>  <MMFF94 Energy>
-127.47

$$$$
Compound 171
Actelion Java MolfileCreator 1.0

 29 30  0  0  0  0  0  0  0  0999 V2000
    3.6625    0.9544    0.2385 O   0  0  0  0  0  0  0  0  0  0  0  0
    2.6003    0.8407   -0.3851 N   0  0  0  0  0  0  0  0  0  0  0  0
    2.3606    0.0168   -1.2778 O   0  0  0  0  0  0  0  0  0  0  0  0
    1.5780    1.7968   -0.0984 C   0  0  0  0  0  0  0  0  0  0  0  0
    0.2130    1.6771   -0.3146 C   0  0  0  0  0  0  0  0  0  0  0  0
    1.7668    3.0892    0.4172 C   0  0  0  0  0  0  0  0  0  0  0  0
   -0.2976    2.9130   -0.0002 N   0  0  0  0  0  0  0  0  0  0  0  0
   -0.5842    0.5577   -0.7762 C   0  0  0  0  0  0  0  0  0  0  0  0
    0.6234    3.7763    0.4772 N   0  0  0  0  0  0  0  0  0  0  0  0
   -1.6779    3.3372   -0.0937 C   0  0  0  0  0  0  0  0  0  0  0  0
   -1.4669    0.7135   -1.6180 O   0  0  0  0  0  0  0  0  0  0  0  0
   -0.4358   -0.7464   -0.2205 N   0  0  0  0  0  0  0  0  0  0  0  0
    0.3502   -0.9053    0.8881 N   0  0  0  0  0  0  0  0  0  0  0  0
   -1.0348   -1.9444   -0.5872 C   0  0  0  0  0  0  0  0  0  0  0  0
    0.2814   -2.2070    1.1790 C   0  0  0  0  0  0  0  0  0  0  0  0
   -0.5732   -2.8951    0.2976 C   0  0  0  0  0  0  0  0  0  0  0  0
   -1.9590   -2.0870   -1.7396 C   0  0  0  0  0  0  0  0  0  0  0  0
    1.0502   -2.7567    2.3219 C   0  0  0  0  0  0  0  0  0  0  0  0
    2.6877    3.5676    0.7287 H   0  0  0  0  0  0  0  0  0  0  0  0
   -1.8029    4.2846    0.4376 H   0  0  0  0  0  0  0  0  0  0  0  0
   -1.9236    3.4661   -1.1503 H   0  0  0  0  0  0  0  0  0  0  0  0
   -2.3123    2.5754    0.3660 H   0  0  0  0  0  0  0  0  0  0  0  0
   -0.8192   -3.9486    0.3016 H   0  0  0  0  0  0  0  0  0  0  0  0
   -2.8810   -1.5217   -1.5716 H   0  0  0  0  0  0  0  0  0  0  0  0
   -2.2367   -3.1364   -1.8850 H   0  0  0  0  0  0  0  0  0  0  0  0
   -1.4889   -1.7397   -2.6649 H   0  0  0  0  0  0  0  0  0  0  0  0
    0.9176   -3.8403    2.4024 H   0  0  0  0  0  0  0  0  0  0  0  0
    0.7172   -2.3033    3.2611 H   0  0  0  0  0  0  0  0  0  0  0  0
    2.1191   -2.5546    2.1984 H   0  0  0  0  0  0  0  0  0  0  0  0
  1  2  2  0  0  0  0
  2  3  1  0  0  0  0
  2  4  1  0  0  0  0
  4  5  2  0  0  0  0
  4  6  1  0  0  0  0
  5  7  1  0  0  0  0
  5  8  1  0  0  0  0
  6  9  2  0  0  0  0
  7 10  1  0  0  0  0
  8 11  2  0  0  0  0
  8 12  1  0  0  0  0
 12 13  1  0  0  0  0
 12 14  1  0  0  0  0
 13 15  2  0  0  0  0
 14 16  2  0  0  0  0
 14 17  1  0  0  0  0
 15 18  1  0  0  0  0
  7  9  1  0  0  0  0
 15 16  1  0  0  0  0
  6 19  1  0  0  0  0
 10 20  1  0  0  0  0
 10 21  1  0  0  0  0
 10 22  1  0  0  0  0
 16 23  1  0  0  0  0
 17 24  1  0  0  0  0
 17 25  1  0  0  0  0
 17 26  1  0  0  0  0
 18 27  1  0  0  0  0
 18 28  1  0  0  0  0
 18 29  1  0  0  0  0
M  CHG  2   2   1   3  -1
M  END
>  <Column 1>
Cc1cc(C)n(C(=O)c2c([N+](=O)[O-])cnn2C)n1 ZINC000000033406

>  <Total Molweight>
249.229

>  <cLogP>
-0.5337

>  <cLogS>
-2.862

>  <H-Acceptors>
7

>  <H-Donors>
0

>  <Total Surface Area>
187.14

>  <MMFF94 Energy>
66.725

$$$$
Compound 172
Actelion Java MolfileCreator 1.0

 31 32  0  0  0  0  0  0  0  0999 V2000
   -2.6066    1.9742    2.6857 O   0  0  0  0  0  0  0  0  0  0  0  0
   -1.3922    1.7302    3.4105 C   0  0  0  0  0  0  0  0  0  0  0  0
   -2.8468    0.8998    1.7655 C   0  0  0  0  0  0  0  0  0  0  0  0
   -0.1771    1.6582    2.4746 C   0  0  0  0  0  0  0  0  0  0  0  0
   -1.7210    0.7778    0.7286 C   0  0  0  0  0  0  0  0  0  0  0  0
   -0.4150    0.7026    1.3891 N   0  0  0  0  0  0  0  0  0  0  0  0
    0.6665    0.2798    0.6403 C   0  0  0  0  0  0  0  0  0  0  0  0
    0.4448   -0.3289   -0.5222 N   0  0  0  0  0  0  0  0  0  0  0  0
    1.8865    0.4813    1.1142 N   0  0  0  0  0  0  0  0  0  0  0  0
    1.4971   -0.7414   -1.2199 C   0  0  0  0  0  0  0  0  0  0  0  0
    2.8714    0.0298    0.3416 C   0  0  0  0  0  0  0  0  0  0  0  0
    2.7470   -0.5845   -0.8300 N   0  0  0  0  0  0  0  0  0  0  0  0
    1.3210   -1.3705   -2.4212 N   0  0  0  0  0  0  0  0  0  0  0  0
    4.2110    0.2318    0.8253 C   0  0  0  0  0  0  0  0  0  0  0  0
    0.0091   -1.6227   -2.9598 C   0  0  0  0  0  0  0  0  0  0  0  0
    5.2939    0.3977    1.2184 N   0  0  0  0  0  0  0  0  0  0  0  0
    0.1270   -2.3298   -4.2999 C   0  0  0  0  0  0  0  0  0  0  0  0
   -1.2610    2.5481    4.1263 H   0  0  0  0  0  0  0  0  0  0  0  0
   -1.5000    0.8019    3.9848 H   0  0  0  0  0  0  0  0  0  0  0  0
   -2.9629   -0.0338    2.3295 H   0  0  0  0  0  0  0  0  0  0  0  0
   -3.7966    1.1003    1.2594 H   0  0  0  0  0  0  0  0  0  0  0  0
    0.0024    2.6486    2.0380 H   0  0  0  0  0  0  0  0  0  0  0  0
    0.6953    1.3846    3.0795 H   0  0  0  0  0  0  0  0  0  0  0  0
   -1.9250   -0.1090    0.1172 H   0  0  0  0  0  0  0  0  0  0  0  0
   -1.7344    1.6587    0.0747 H   0  0  0  0  0  0  0  0  0  0  0  0
    2.1623   -1.6630   -2.8943 H   0  0  0  0  0  0  0  0  0  0  0  0
   -0.5711   -2.2514   -2.2742 H   0  0  0  0  0  0  0  0  0  0  0  0
   -0.5340   -0.6807   -3.1005 H   0  0  0  0  0  0  0  0  0  0  0  0
   -0.8659   -2.5250   -4.7170 H   0  0  0  0  0  0  0  0  0  0  0  0
    0.6867   -1.7205   -5.0177 H   0  0  0  0  0  0  0  0  0  0  0  0
    0.6487   -3.2870   -4.1944 H   0  0  0  0  0  0  0  0  0  0  0  0
  1  2  1  0  0  0  0
  1  3  1  0  0  0  0
  2  4  1  0  0  0  0
  3  5  1  0  0  0  0
  4  6  1  0  0  0  0
  6  7  1  0  0  0  0
  7  8  2  0  0  0  0
  7  9  1  0  0  0  0
  8 10  1  0  0  0  0
  9 11  2  0  0  0  0
 10 12  2  0  0  0  0
 10 13  1  0  0  0  0
 11 14  1  0  0  0  0
 13 15  1  0  0  0  0
 14 16  3  0  0  0  0
 15 17  1  0  0  0  0
  5  6  1  0  0  0  0
 11 12  1  0  0  0  0
  2 18  1  0  0  0  0
  2 19  1  0  0  0  0
  3 20  1  0  0  0  0
  3 21  1  0  0  0  0
  4 22  1  0  0  0  0
  4 23  1  0  0  0  0
  5 24  1  0  0  0  0
  5 25  1  0  0  0  0
 13 26  1  0  0  0  0
 15 27  1  0  0  0  0
 15 28  1  0  0  0  0
 17 29  1  0  0  0  0
 17 30  1  0  0  0  0
 17 31  1  0  0  0  0
M  END
>  <Column 1>
CCNc1nc(C#N)nc(N2CCOCC2)n1 ZINC000000033668

>  <Total Molweight>
234.262

>  <cLogP>
0.1591

>  <cLogS>
-2.051

>  <H-Acceptors>
7

>  <H-Donors>
1

>  <Total Surface Area>
190.57

>  <MMFF94 Energy>
-121.85

$$$$
Compound 173
Actelion Java MolfileCreator 1.0

 28 28  0  0  0  0  0  0  0  0999 V2000
    3.0460   -0.9364   -1.0926 O   0  0  0  0  0  0  0  0  0  0  0  0
    1.6930   -1.0917   -0.8787 C   0  0  0  0  0  0  0  0  0  0  0  0
    3.5709   -1.8182   -2.0764 C   0  0  0  0  0  0  0  0  0  0  0  0
    1.1869   -0.2753    0.0372 N   0  0  0  0  0  0  0  0  0  0  0  0
    1.0168   -1.9981   -1.5648 N   0  0  0  0  0  0  0  0  0  0  0  0
   -0.1150   -0.3785    0.2834 C   0  0  0  0  0  0  0  0  0  0  0  0
   -0.2717   -2.0247   -1.2442 C   0  0  0  0  0  0  0  0  0  0  0  0
   -0.8862   -1.2568   -0.3457 N   0  0  0  0  0  0  0  0  0  0  0  0
   -0.6850    0.4491    1.2283 N   0  0  0  0  0  0  0  0  0  0  0  0
   -1.0911   -2.9813   -1.9394 C   0  0  0  0  0  0  0  0  0  0  0  0
   -2.1124    0.3663    1.5115 C   0  0  0  0  0  0  0  0  0  0  0  0
    0.1409    1.4276    1.9263 C   0  0  0  0  0  0  0  0  0  0  0  0
   -1.7498   -3.7565   -2.5045 N   0  0  0  0  0  0  0  0  0  0  0  0
   -2.9379    1.1244    0.4819 C   0  0  0  0  0  0  0  0  0  0  0  0
    0.3569    2.6825    1.0928 C   0  0  0  0  0  0  0  0  0  0  0  0
    4.6423   -1.6153   -2.1691 H   0  0  0  0  0  0  0  0  0  0  0  0
    3.4560   -2.8649   -1.7739 H   0  0  0  0  0  0  0  0  0  0  0  0
    3.1129   -1.6395   -3.0555 H   0  0  0  0  0  0  0  0  0  0  0  0
   -2.3235    0.7880    2.5019 H   0  0  0  0  0  0  0  0  0  0  0  0
   -2.4438   -0.6783    1.5654 H   0  0  0  0  0  0  0  0  0  0  0  0
    1.1069    0.9956    2.2160 H   0  0  0  0  0  0  0  0  0  0  0  0
   -0.3391    1.7180    2.8690 H   0  0  0  0  0  0  0  0  0  0  0  0
   -2.7849    0.7346   -0.5291 H   0  0  0  0  0  0  0  0  0  0  0  0
   -2.6807    2.1877    0.4726 H   0  0  0  0  0  0  0  0  0  0  0  0
   -4.0034    1.0394    0.7182 H   0  0  0  0  0  0  0  0  0  0  0  0
   -0.5926    3.1770    0.8676 H   0  0  0  0  0  0  0  0  0  0  0  0
    0.8515    2.4597    0.1424 H   0  0  0  0  0  0  0  0  0  0  0  0
    0.9836    3.3939    1.6402 H   0  0  0  0  0  0  0  0  0  0  0  0
  1  2  1  0  0  0  0
  1  3  1  0  0  0  0
  2  4  2  0  0  0  0
  2  5  1  0  0  0  0
  4  6  1  0  0  0  0
  5  7  2  0  0  0  0
  6  8  2  0  0  0  0
  6  9  1  0  0  0  0
  7 10  1  0  0  0  0
  9 11  1  0  0  0  0
  9 12  1  0  0  0  0
 10 13  3  0  0  0  0
 11 14  1  0  0  0  0
 12 15  1  0  0  0  0
  7  8  1  0  0  0  0
  3 16  1  0  0  0  0
  3 17  1  0  0  0  0
  3 18  1  0  0  0  0
 11 19  1  0  0  0  0
 11 20  1  0  0  0  0
 12 21  1  0  0  0  0
 12 22  1  0  0  0  0
 14 23  1  0  0  0  0
 14 24  1  0  0  0  0
 14 25  1  0  0  0  0
 15 26  1  0  0  0  0
 15 27  1  0  0  0  0
 15 28  1  0  0  0  0
M  END
>  <Column 1>
CCN(CC)c1nc(C#N)nc(OC)n1 ZINC000000033738

>  <Total Molweight>
207.236

>  <cLogP>
1.0758

>  <cLogS>
-2.242

>  <H-Acceptors>
6

>  <H-Donors>
0

>  <Total Surface Area>
175.85

>  <MMFF94 Energy>
-136.14

$$$$
Compound 174
Actelion Java MolfileCreator 1.0

 31 32  0  0  0  0  0  0  0  0999 V2000
   -3.5612    2.4270    2.5080 S   0  0  0  0  0  0  0  0  0  0  0  0
   -2.9689    3.4677    3.3154 O   0  0  0  0  0  0  0  0  0  0  0  0
   -4.5102    1.4780    3.0413 O   0  0  0  0  0  0  0  0  0  0  0  0
   -4.3506    3.2098    1.2503 N   0  0  0  0  0  0  0  0  0  0  0  0
   -2.2830    1.5569    1.6502 C   0  0  0  0  0  0  0  0  0  0  0  0
   -2.4957    0.2419    1.2359 C   0  0  0  0  0  0  0  0  0  0  0  0
   -1.0518    2.1759    1.4321 C   0  0  0  0  0  0  0  0  0  0  0  0
   -1.4727   -0.4493    0.5778 C   0  0  0  0  0  0  0  0  0  0  0  0
   -0.0341    1.4775    0.7740 C   0  0  0  0  0  0  0  0  0  0  0  0
   -0.2307    0.1584    0.3361 C   0  0  0  0  0  0  0  0  0  0  0  0
    0.8001   -0.5422   -0.3295 N   0  0  0  0  0  0  0  0  0  0  0  0
    1.0276   -1.9163   -0.2480 C   0  0  0  0  0  0  0  0  0  0  0  0
    1.7518    0.0309   -1.1736 C   0  0  0  0  0  0  0  0  0  0  0  0
    0.4239   -2.7517    0.4112 O   0  0  0  0  0  0  0  0  0  0  0  0
    2.1293   -2.1921   -1.0628 N   0  0  0  0  0  0  0  0  0  0  0  0
    1.8598    1.1999   -1.5185 O   0  0  0  0  0  0  0  0  0  0  0  0
    2.5854   -1.0050   -1.6046 N   0  0  0  0  0  0  0  0  0  0  0  0
    2.8202   -3.4397   -1.2288 C   0  0  0  0  0  0  0  0  0  0  0  0
    3.6480   -0.9468   -2.5683 C   0  0  0  0  0  0  0  0  0  0  0  0
   -4.2714    4.2203    1.3672 H   0  0  0  0  0  0  0  0  0  0  0  0
   -5.3125    2.8760    1.1846 H   0  0  0  0  0  0  0  0  0  0  0  0
   -3.4470   -0.2536    1.4182 H   0  0  0  0  0  0  0  0  0  0  0  0
   -0.8729    3.1951    1.7683 H   0  0  0  0  0  0  0  0  0  0  0  0
   -1.6691   -1.4697    0.2547 H   0  0  0  0  0  0  0  0  0  0  0  0
    0.9180    1.9819    0.6210 H   0  0  0  0  0  0  0  0  0  0  0  0
    2.2902   -4.2339   -0.6960 H   0  0  0  0  0  0  0  0  0  0  0  0
    2.8683   -3.6922   -2.2912 H   0  0  0  0  0  0  0  0  0  0  0  0
    3.8294   -3.3511   -0.8172 H   0  0  0  0  0  0  0  0  0  0  0  0
    3.8212    0.0895   -2.8710 H   0  0  0  0  0  0  0  0  0  0  0  0
    3.3682   -1.5300   -3.4499 H   0  0  0  0  0  0  0  0  0  0  0  0
    4.5639   -1.3483   -2.1271 H   0  0  0  0  0  0  0  0  0  0  0  0
  1  2  2  0  0  0  0
  1  3  2  0  0  0  0
  1  4  1  0  0  0  0
  1  5  1  0  0  0  0
  5  6  2  0  0  0  0
  5  7  1  0  0  0  0
  6  8  1  0  0  0  0
  7  9  2  0  0  0  0
  8 10  2  0  0  0  0
 10 11  1  0  0  0  0
 11 12  1  0  0  0  0
 11 13  1  0  0  0  0
 12 14  2  0  0  0  0
 12 15  1  0  0  0  0
 13 16  2  0  0  0  0
 13 17  1  0  0  0  0
 15 18  1  0  0  0  0
 17 19  1  0  0  0  0
  9 10  1  0  0  0  0
 15 17  1  0  0  0  0
  4 20  1  0  0  0  0
  4 21  1  0  0  0  0
  6 22  1  0  0  0  0
  7 23  1  0  0  0  0
  8 24  1  0  0  0  0
  9 25  1  0  0  0  0
 18 26  1  0  0  0  0
 18 27  1  0  0  0  0
 18 28  1  0  0  0  0
 19 29  1  0  0  0  0
 19 30  1  0  0  0  0
 19 31  1  0  0  0  0
M  END
>  <Column 1>
Cn1c(=O)n(-c2ccc(S(N)(=O)=O)cc2)c(=O)n1C ZINC000000033762

>  <Total Molweight>
284.295

>  <cLogP>
-1.2882

>  <cLogS>
-2.061

>  <H-Acceptors>
8

>  <H-Donors>
1

>  <Total Surface Area>
187.78

>  <MMFF94 Energy>
-64.05

$$$$
Compound 175
Actelion Java MolfileCreator 1.0

 33 35  0  0  0  0  0  0  0  0999 V2000
   -2.0446   -0.4904    1.1446 S   0  0  0  0  0  0  0  0  0  0  0  0
   -1.6162   -1.8742    1.0609 O   0  0  0  0  0  0  0  0  0  0  0  0
   -3.3329   -0.1941    1.7426 O   0  0  0  0  0  0  0  0  0  0  0  0
   -0.8985    0.3286    2.1158 N   0  0  0  0  0  0  0  0  0  0  0  0
   -2.0255    0.2354   -0.4268 C   0  0  0  0  0  0  0  0  0  0  0  0
    0.4856    0.2284    1.7575 C   0  0  0  0  0  0  0  0  0  0  0  0
   -1.8771    1.7020   -0.5086 C   0  0  0  0  0  0  0  0  0  0  0  0
   -2.2069   -0.4650   -1.5644 C   0  0  0  0  0  0  0  0  0  0  0  0
    1.1506   -1.0000    1.7764 C   0  0  0  0  0  0  0  0  0  0  0  0
    1.1835    1.4062    1.4220 C   0  0  0  0  0  0  0  0  0  0  0  0
   -1.7744    2.4151    0.4862 O   0  0  0  0  0  0  0  0  0  0  0  0
   -1.8506    2.2438   -1.7649 N   0  0  0  0  0  0  0  0  0  0  0  0
   -2.1739    0.1969   -2.7768 N   0  0  0  0  0  0  0  0  0  0  0  0
   -2.4803   -1.9422   -1.6653 C   0  0  0  0  0  0  0  0  0  0  0  0
    2.4843   -1.0151    1.4241 C   0  0  0  0  0  0  0  0  0  0  0  0
    2.5361    1.3609    1.0681 C   0  0  0  0  0  0  0  0  0  0  0  0
   -1.9917    1.5423   -2.9242 C   0  0  0  0  0  0  0  0  0  0  0  0
    3.2823   -2.1156    1.3801 O   0  0  0  0  0  0  0  0  0  0  0  0
    3.1571    0.1320    1.0760 C   0  0  0  0  0  0  0  0  0  0  0  0
   -1.9646    2.0800   -4.0244 O   0  0  0  0  0  0  0  0  0  0  0  0
    4.5355   -1.5291    0.9720 C   0  0  0  0  0  0  0  0  0  0  0  0
    4.4594   -0.1026    0.7664 O   0  0  0  0  0  0  0  0  0  0  0  0
   -1.2325    1.2889    2.2596 H   0  0  0  0  0  0  0  0  0  0  0  0
    0.6555   -1.9182    2.0720 H   0  0  0  0  0  0  0  0  0  0  0  0
    0.6807    2.3707    1.4374 H   0  0  0  0  0  0  0  0  0  0  0  0
   -1.7391    3.2429   -1.8476 H   0  0  0  0  0  0  0  0  0  0  0  0
   -2.2956   -0.3144   -3.6459 H   0  0  0  0  0  0  0  0  0  0  0  0
   -3.1531   -2.2891   -0.8754 H   0  0  0  0  0  0  0  0  0  0  0  0
   -1.5442   -2.5080   -1.6282 H   0  0  0  0  0  0  0  0  0  0  0  0
   -2.9796   -2.1883   -2.6097 H   0  0  0  0  0  0  0  0  0  0  0  0
    3.0808    2.2610    0.8058 H   0  0  0  0  0  0  0  0  0  0  0  0
    5.2866   -1.7328    1.7439 H   0  0  0  0  0  0  0  0  0  0  0  0
    4.8552   -2.0013    0.0360 H   0  0  0  0  0  0  0  0  0  0  0  0
  1  2  2  0  0  0  0
  1  3  2  0  0  0  0
  1  4  1  0  0  0  0
  1  5  1  0  0  0  0
  4  6  1  0  0  0  0
  5  7  1  0  0  0  0
  5  8  2  0  0  0  0
  6  9  2  0  0  0  0
  6 10  1  0  0  0  0
  7 11  2  0  0  0  0
  7 12  1  0  0  0  0
  8 13  1  0  0  0  0
  8 14  1  0  0  0  0
  9 15  1  0  0  0  0
 10 16  2  0  0  0  0
 12 17  1  0  0  0  0
 15 18  1  0  0  0  0
 15 19  2  0  0  0  0
 17 20  2  0  0  0  0
 18 21  1  0  0  0  0
 19 22  1  0  0  0  0
 13 17  1  0  0  0  0
 16 19  1  0  0  0  0
 21 22  1  0  0  0  0
  4 23  1  0  0  0  0
  9 24  1  0  0  0  0
 10 25  1  0  0  0  0
 12 26  1  0  0  0  0
 13 27  1  0  0  0  0
 14 28  1  0  0  0  0
 14 29  1  0  0  0  0
 14 30  1  0  0  0  0
 16 31  1  0  0  0  0
 21 32  1  0  0  0  0
 21 33  1  0  0  0  0
M  END
>  <Column 1>
Cc1[nH]c(=O)[nH]c(=O)c1S(=O)(=O)Nc1ccc2c(c1)OCO2 ZINC000000033806

>  <Total Molweight>
325.3

>  <cLogP>
0.1574

>  <cLogS>
-4.46

>  <H-Acceptors>
9

>  <H-Donors>
3

>  <Total Surface Area>
213.66

>  <MMFF94 Energy>
-142.49

$$$$
Compound 176
Actelion Java MolfileCreator 1.0

 30 32  0  0  0  0  0  0  0  0999 V2000
   -3.0384    2.8740    1.7237 S   0  0  0  0  0  0  0  0  0  0  0  0
   -3.1828    4.1868    1.1322 O   0  0  0  0  0  0  0  0  0  0  0  0
   -3.8274    2.4404    2.8567 O   0  0  0  0  0  0  0  0  0  0  0  0
   -3.0516    1.7254    0.5555 N   0  0  0  0  0  0  0  0  0  0  0  0
   -1.3681    2.6812    2.1528 C   0  0  0  0  0  0  0  0  0  0  0  0
   -1.8722    1.1727    0.4366 C   0  0  0  0  0  0  0  0  0  0  0  0
   -0.8254    1.6920    1.3539 C   0  0  0  0  0  0  0  0  0  0  0  0
   -0.6560    3.3703    3.1169 C   0  0  0  0  0  0  0  0  0  0  0  0
   -1.6668    0.1802   -0.4917 N   0  0  0  0  0  0  0  0  0  0  0  0
    0.5073    1.3487    1.5044 C   0  0  0  0  0  0  0  0  0  0  0  0
    0.6865    3.0285    3.2725 C   0  0  0  0  0  0  0  0  0  0  0  0
   -0.5039   -0.4783   -0.7239 N   0  0  0  0  0  0  0  0  0  0  0  0
    1.2636    2.0253    2.4723 C   0  0  0  0  0  0  0  0  0  0  0  0
   -0.5452   -1.3811   -1.6535 C   0  0  0  0  0  0  0  0  0  0  0  0
    0.6340   -2.1916   -2.0333 C   0  0  0  0  0  0  0  0  0  0  0  0
    1.7880   -1.9564   -1.3638 N   0  0  0  0  0  0  0  0  0  0  0  0
    0.5042   -3.1390   -3.0413 C   0  0  0  0  0  0  0  0  0  0  0  0
    2.8560   -2.7008   -1.7184 C   0  0  0  0  0  0  0  0  0  0  0  0
    1.6263   -3.8895   -3.3820 C   0  0  0  0  0  0  0  0  0  0  0  0
    2.8247   -3.6685   -2.7101 C   0  0  0  0  0  0  0  0  0  0  0  0
   -1.1219    4.1404    3.7227 H   0  0  0  0  0  0  0  0  0  0  0  0
   -2.5016   -0.0436   -1.0303 H   0  0  0  0  0  0  0  0  0  0  0  0
    0.9711    0.5779    0.8972 H   0  0  0  0  0  0  0  0  0  0  0  0
    1.2945    3.5389    4.0168 H   0  0  0  0  0  0  0  0  0  0  0  0
    2.3132    1.7691    2.6053 H   0  0  0  0  0  0  0  0  0  0  0  0
   -1.4766   -1.5875   -2.2104 H   0  0  0  0  0  0  0  0  0  0  0  0
   -0.4373   -3.2982   -3.5546 H   0  0  0  0  0  0  0  0  0  0  0  0
    3.7689   -2.4931   -1.1668 H   0  0  0  0  0  0  0  0  0  0  0  0
    1.5685   -4.6411   -4.1648 H   0  0  0  0  0  0  0  0  0  0  0  0
    3.7157   -4.2376   -2.9534 H   0  0  0  0  0  0  0  0  0  0  0  0
  1  2  2  0  0  0  0
  1  3  2  0  0  0  0
  1  4  1  0  0  0  0
  1  5  1  0  0  0  0
  4  6  2  0  0  0  0
  5  7  2  0  0  0  0
  5  8  1  0  0  0  0
  6  9  1  0  0  0  0
  7 10  1  0  0  0  0
  8 11  2  0  0  0  0
  9 12  1  0  0  0  0
 10 13  2  0  0  0  0
 12 14  2  0  0  0  0
 14 15  1  0  0  0  0
 15 16  2  0  0  0  0
 15 17  1  0  0  0  0
 16 18  1  0  0  0  0
 17 19  2  0  0  0  0
 18 20  2  0  0  0  0
  6  7  1  0  0  0  0
 11 13  1  0  0  0  0
 19 20  1  0  0  0  0
  8 21  1  0  0  0  0
  9 22  1  0  0  0  0
 10 23  1  0  0  0  0
 11 24  1  0  0  0  0
 13 25  1  0  0  0  0
 14 26  1  0  0  0  0
 17 27  1  0  0  0  0
 18 28  1  0  0  0  0
 19 29  1  0  0  0  0
 20 30  1  0  0  0  0
M  END
>  <Column 1>
O=S1(=O)N=C(N/N=C/c2ccccn2)c2ccccc21 ZINC000000033995

>  <Total Molweight>
286.314

>  <cLogP>
1.8926

>  <cLogS>
-2.956

>  <H-Acceptors>
6

>  <H-Donors>
1

>  <Total Surface Area>
206.05

>  <MMFF94 Energy>
67.567

$$$$
Compound 177
Actelion Java MolfileCreator 1.0

 38 39  0  0  0  0  0  0  0  0999 V2000
   -0.6346   -2.1430   -6.2005 S   0  0  0  0  0  0  0  0  0  0  0  0
    0.9653   -2.2118   -5.7417 C   0  0  0  0  0  0  0  0  0  0  0  0
    1.5094   -1.8451   -4.5325 N   0  0  0  0  0  0  0  0  0  0  0  0
    1.8873   -2.6792   -6.6317 N   0  0  0  0  0  0  0  0  0  0  0  0
    0.7411   -1.3545   -3.5196 N   0  0  0  0  0  0  0  0  0  0  0  0
    1.3775   -1.0473   -2.4326 C   0  0  0  0  0  0  0  0  0  0  0  0
    0.6749   -0.5030   -1.2490 C   0  0  0  0  0  0  0  0  0  0  0  0
    1.3853   -0.1797   -0.0857 C   0  0  0  0  0  0  0  0  0  0  0  0
   -0.7074   -0.3084   -1.3029 C   0  0  0  0  0  0  0  0  0  0  0  0
    2.7414   -0.3853   -0.1092 O   0  0  0  0  0  0  0  0  0  0  0  0
    0.6785    0.3322    1.0145 C   0  0  0  0  0  0  0  0  0  0  0  0
   -1.3883    0.2049   -0.1955 C   0  0  0  0  0  0  0  0  0  0  0  0
    3.4799   -0.0463    1.0586 C   0  0  0  0  0  0  0  0  0  0  0  0
   -0.7167    0.5277    0.9903 C   0  0  0  0  0  0  0  0  0  0  0  0
   -1.3728    1.0432    2.1047 N   0  0  0  0  0  0  0  0  0  0  0  0
   -2.6926    1.6849    1.9591 C   0  0  0  0  0  0  0  0  0  0  0  0
   -1.1835    0.3554    3.3981 C   0  0  0  0  0  0  0  0  0  0  0  0
   -3.0051    2.5495    3.1902 C   0  0  0  0  0  0  0  0  0  0  0  0
   -1.5771    1.2812    4.5600 C   0  0  0  0  0  0  0  0  0  0  0  0
   -2.9097    1.7926    4.4069 O   0  0  0  0  0  0  0  0  0  0  0  0
    2.5056   -1.9392   -4.3856 H   0  0  0  0  0  0  0  0  0  0  0  0
    1.5605   -2.9689   -7.5455 H   0  0  0  0  0  0  0  0  0  0  0  0
    2.8724   -2.7517   -6.4315 H   0  0  0  0  0  0  0  0  0  0  0  0
    2.4703   -1.1830   -2.3547 H   0  0  0  0  0  0  0  0  0  0  0  0
   -1.2661   -0.5562   -2.2037 H   0  0  0  0  0  0  0  0  0  0  0  0
    1.2088    0.6257    1.9139 H   0  0  0  0  0  0  0  0  0  0  0  0
   -2.4649    0.3243   -0.2791 H   0  0  0  0  0  0  0  0  0  0  0  0
    3.4072    1.0247    1.2745 H   0  0  0  0  0  0  0  0  0  0  0  0
    4.5324   -0.2750    0.8652 H   0  0  0  0  0  0  0  0  0  0  0  0
    3.1615   -0.6484    1.9159 H   0  0  0  0  0  0  0  0  0  0  0  0
   -3.4601    0.9075    1.8592 H   0  0  0  0  0  0  0  0  0  0  0  0
   -2.7224    2.3277    1.0715 H   0  0  0  0  0  0  0  0  0  0  0  0
   -1.8223   -0.5367    3.4111 H   0  0  0  0  0  0  0  0  0  0  0  0
   -0.1502    0.0294    3.5544 H   0  0  0  0  0  0  0  0  0  0  0  0
   -4.0260    2.9387    3.1204 H   0  0  0  0  0  0  0  0  0  0  0  0
   -2.3250    3.4079    3.2503 H   0  0  0  0  0  0  0  0  0  0  0  0
   -1.5413    0.7270    5.5033 H   0  0  0  0  0  0  0  0  0  0  0  0
   -0.8797    2.1237    4.6426 H   0  0  0  0  0  0  0  0  0  0  0  0
  1  2  2  0  0  0  0
  2  3  1  0  0  0  0
  2  4  1  0  0  0  0
  3  5  1  0  0  0  0
  5  6  2  0  0  0  0
  6  7  1  0  0  0  0
  7  8  2  0  0  0  0
  7  9  1  0  0  0  0
  8 10  1  0  0  0  0
  8 11  1  0  0  0  0
  9 12  2  0  0  0  0
 10 13  1  0  0  0  0
 11 14  2  0  0  0  0
 14 15  1  0  0  0  0
 15 16  1  0  0  0  0
 15 17  1  0  0  0  0
 16 18  1  0  0  0  0
 17 19  1  0  0  0  0
 18 20  1  0  0  0  0
 12 14  1  0  0  0  0
 19 20  1  0  0  0  0
  3 21  1  0  0  0  0
  4 22  1  0  0  0  0
  4 23  1  0  0  0  0
  6 24  1  0  0  0  0
  9 25  1  0  0  0  0
 11 26  1  0  0  0  0
 12 27  1  0  0  0  0
 13 28  1  0  0  0  0
 13 29  1  0  0  0  0
 13 30  1  0  0  0  0
 16 31  1  0  0  0  0
 16 32  1  0  0  0  0
 17 33  1  0  0  0  0
 17 34  1  0  0  0  0
 18 35  1  0  0  0  0
 18 36  1  0  0  0  0
 19 37  1  0  0  0  0
 19 38  1  0  0  0  0
M  END
>  <Column 1>
COc1cc(N2CCOCC2)ccc1/C=N/NC(N)=S ZINC000000034068

>  <Total Molweight>
294.378

>  <cLogP>
1.131

>  <cLogS>
-3.019

>  <H-Acceptors>
6

>  <H-Donors>
2

>  <Total Surface Area>
234.81

>  <MMFF94 Energy>
88.807

$$$$
Compound 178
Actelion Java MolfileCreator 1.0

 33 35  0  0  0  0  0  0  0  0999 V2000
    1.2263   -3.1906   -4.3378 S   0  0  0  0  0  0  0  0  0  0  0  0
    1.5391   -2.1238   -5.2594 O   0  0  0  0  0  0  0  0  0  0  0  0
    0.4232   -4.3304   -4.7148 O   0  0  0  0  0  0  0  0  0  0  0  0
    2.7001   -3.8142   -3.8312 N   0  0  0  0  0  0  0  0  0  0  0  0
    0.5884   -2.4986   -2.8406 C   0  0  0  0  0  0  0  0  0  0  0  0
    0.9148   -1.1876   -2.4924 C   0  0  0  0  0  0  0  0  0  0  0  0
   -0.2739   -3.2496   -2.0404 C   0  0  0  0  0  0  0  0  0  0  0  0
    0.3884   -0.6346   -1.3206 C   0  0  0  0  0  0  0  0  0  0  0  0
   -0.7965   -2.6875   -0.8705 C   0  0  0  0  0  0  0  0  0  0  0  0
   -0.4725   -1.3742   -0.4915 C   0  0  0  0  0  0  0  0  0  0  0  0
   -1.0244   -0.7959    0.7325 C   0  0  0  0  0  0  0  0  0  0  0  0
   -0.6137    0.4704    1.0418 O   0  0  0  0  0  0  0  0  0  0  0  0
   -1.9024   -1.2365    1.7040 C   0  0  0  0  0  0  0  0  0  0  0  0
   -1.2252    0.8413    2.2044 C   0  0  0  0  0  0  0  0  0  0  0  0
   -2.0320   -0.1864    2.6478 C   0  0  0  0  0  0  0  0  0  0  0  0
   -0.9606    2.1454    2.7539 C   0  0  0  0  0  0  0  0  0  0  0  0
   -0.1533    2.9629    2.1642 N   0  0  0  0  0  0  0  0  0  0  0  0
    0.0518    4.1797    2.7400 N   0  0  0  0  0  0  0  0  0  0  0  0
   -0.4397    4.7650    3.8801 C   0  0  0  0  0  0  0  0  0  0  0  0
    0.8832    5.1354    2.2139 C   0  0  0  0  0  0  0  0  0  0  0  0
    0.0556    5.9736    4.0293 N   0  0  0  0  0  0  0  0  0  0  0  0
    0.8963    6.2087    2.9704 N   0  0  0  0  0  0  0  0  0  0  0  0
    3.4618   -3.3361   -4.3135 H   0  0  0  0  0  0  0  0  0  0  0  0
    2.7074   -4.8271   -3.9528 H   0  0  0  0  0  0  0  0  0  0  0  0
    1.5718   -0.5902   -3.1207 H   0  0  0  0  0  0  0  0  0  0  0  0
   -0.5450   -4.2663   -2.3165 H   0  0  0  0  0  0  0  0  0  0  0  0
    0.6552    0.3891   -1.0614 H   0  0  0  0  0  0  0  0  0  0  0  0
   -1.4634   -3.2926   -0.2608 H   0  0  0  0  0  0  0  0  0  0  0  0
   -2.3947   -2.1983    1.7322 H   0  0  0  0  0  0  0  0  0  0  0  0
   -2.6413   -0.1846    3.5411 H   0  0  0  0  0  0  0  0  0  0  0  0
   -1.4926    2.3734    3.6929 H   0  0  0  0  0  0  0  0  0  0  0  0
   -1.1349    4.2982    4.5586 H   0  0  0  0  0  0  0  0  0  0  0  0
    1.4339    4.9831    1.2984 H   0  0  0  0  0  0  0  0  0  0  0  0
  1  2  2  0  0  0  0
  1  3  2  0  0  0  0
  1  4  1  0  0  0  0
  1  5  1  0  0  0  0
  5  6  2  0  0  0  0
  5  7  1  0  0  0  0
  6  8  1  0  0  0  0
  7  9  2  0  0  0  0
  8 10  2  0  0  0  0
 10 11  1  0  0  0  0
 11 12  1  0  0  0  0
 11 13  2  0  0  0  0
 12 14  1  0  0  0  0
 13 15  1  0  0  0  0
 14 16  1  0  0  0  0
 16 17  2  0  0  0  0
 17 18  1  0  0  0  0
 18 19  1  0  0  0  0
 18 20  1  0  0  0  0
 19 21  2  0  0  0  0
 20 22  2  0  0  0  0
  9 10  1  0  0  0  0
 14 15  2  0  0  0  0
 21 22  1  0  0  0  0
  4 23  1  0  0  0  0
  4 24  1  0  0  0  0
  6 25  1  0  0  0  0
  7 26  1  0  0  0  0
  8 27  1  0  0  0  0
  9 28  1  0  0  0  0
 13 29  1  0  0  0  0
 15 30  1  0  0  0  0
 16 31  1  0  0  0  0
 19 32  1  0  0  0  0
 20 33  1  0  0  0  0
M  END
>  <Column 1>
NS(=O)(=O)c1ccc(-c2ccc(/C=N/n3cnnc3)o2)cc1 ZINC000000034100

>  <Total Molweight>
317.328

>  <cLogP>
0.9312

>  <cLogS>
-5.669

>  <H-Acceptors>
8

>  <H-Donors>
1

>  <Total Surface Area>
231.05

>  <MMFF94 Energy>
-25.442

$$$$
Compound 179
Actelion Java MolfileCreator 1.0

 34 36  0  0  0  0  0  0  0  0999 V2000
   -0.2439   -3.2551    2.7663 S   0  0  0  0  0  0  0  0  0  0  0  0
   -0.9435   -2.9006    3.9789 O   0  0  0  0  0  0  0  0  0  0  0  0
    0.8205   -4.2308    2.7416 O   0  0  0  0  0  0  0  0  0  0  0  0
   -1.4135   -3.8197    1.7019 N   0  0  0  0  0  0  0  0  0  0  0  0
    0.2982   -1.7784    1.9561 C   0  0  0  0  0  0  0  0  0  0  0  0
   -0.3773   -0.5755    2.1975 C   0  0  0  0  0  0  0  0  0  0  0  0
    1.4148   -1.8225    1.1118 C   0  0  0  0  0  0  0  0  0  0  0  0
    0.0486    0.5915    1.5641 C   0  0  0  0  0  0  0  0  0  0  0  0
    1.8443   -0.6572    0.4770 C   0  0  0  0  0  0  0  0  0  0  0  0
    1.1478    0.5348    0.7006 C   0  0  0  0  0  0  0  0  0  0  0  0
    1.5682    1.7079    0.0448 N   0  0  0  0  0  0  0  0  0  0  0  0
    0.9585    2.3434   -1.0289 C   0  0  0  0  0  0  0  0  0  0  0  0
    2.6895    2.4192    0.4130 C   0  0  0  0  0  0  0  0  0  0  0  0
    1.7069    3.4841   -1.2939 C   0  0  0  0  0  0  0  0  0  0  0  0
   -0.2156    1.9151   -1.7564 C   0  0  0  0  0  0  0  0  0  0  0  0
    2.7937    3.5272   -0.3930 C   0  0  0  0  0  0  0  0  0  0  0  0
   -0.7886    0.7899   -1.5007 N   0  0  0  0  0  0  0  0  0  0  0  0
   -1.8875    0.4471   -2.2248 N   0  0  0  0  0  0  0  0  0  0  0  0
   -2.5706    1.0739   -3.2358 C   0  0  0  0  0  0  0  0  0  0  0  0
   -2.5786   -0.7224   -2.0360 C   0  0  0  0  0  0  0  0  0  0  0  0
   -3.5918    0.3422   -3.6243 N   0  0  0  0  0  0  0  0  0  0  0  0
   -3.5967   -0.7993   -2.8615 N   0  0  0  0  0  0  0  0  0  0  0  0
   -2.3239   -3.8339    2.1634 H   0  0  0  0  0  0  0  0  0  0  0  0
   -1.1310   -4.7258    1.3268 H   0  0  0  0  0  0  0  0  0  0  0  0
   -1.2329   -0.5440    2.8686 H   0  0  0  0  0  0  0  0  0  0  0  0
    1.9459   -2.7564    0.9411 H   0  0  0  0  0  0  0  0  0  0  0  0
   -0.4787    1.5260    1.7391 H   0  0  0  0  0  0  0  0  0  0  0  0
    2.7019   -0.6886   -0.1907 H   0  0  0  0  0  0  0  0  0  0  0  0
    3.3107    2.0797    1.2321 H   0  0  0  0  0  0  0  0  0  0  0  0
    1.4981    4.2083   -2.0722 H   0  0  0  0  0  0  0  0  0  0  0  0
   -0.5627    2.6135   -2.5378 H   0  0  0  0  0  0  0  0  0  0  0  0
    3.5689    4.2813   -0.3370 H   0  0  0  0  0  0  0  0  0  0  0  0
   -2.3057    2.0325   -3.6516 H   0  0  0  0  0  0  0  0  0  0  0  0
   -2.2884   -1.4524   -1.2957 H   0  0  0  0  0  0  0  0  0  0  0  0
  1  2  2  0  0  0  0
  1  3  2  0  0  0  0
  1  4  1  0  0  0  0
  1  5  1  0  0  0  0
  5  6  2  0  0  0  0
  5  7  1  0  0  0  0
  6  8  1  0  0  0  0
  7  9  2  0  0  0  0
  8 10  2  0  0  0  0
 10 11  1  0  0  0  0
 11 12  1  0  0  0  0
 11 13  1  0  0  0  0
 12 14  2  0  0  0  0
 12 15  1  0  0  0  0
 13 16  2  0  0  0  0
 15 17  2  0  0  0  0
 17 18  1  0  0  0  0
 18 19  1  0  0  0  0
 18 20  1  0  0  0  0
 19 21  2  0  0  0  0
 20 22  2  0  0  0  0
  9 10  1  0  0  0  0
 14 16  1  0  0  0  0
 21 22  1  0  0  0  0
  4 23  1  0  0  0  0
  4 24  1  0  0  0  0
  6 25  1  0  0  0  0
  7 26  1  0  0  0  0
  8 27  1  0  0  0  0
  9 28  1  0  0  0  0
 13 29  1  0  0  0  0
 14 30  1  0  0  0  0
 15 31  1  0  0  0  0
 16 32  1  0  0  0  0
 19 33  1  0  0  0  0
 20 34  1  0  0  0  0
M  END
>  <Column 1>
NS(=O)(=O)c1ccc(-n2cccc2/C=N/n2cnnc2)cc1 ZINC000000034102

>  <Total Molweight>
316.344

>  <cLogP>
0.2312

>  <cLogS>
-6.546

>  <H-Acceptors>
8

>  <H-Donors>
1

>  <Total Surface Area>
230.56

>  <MMFF94 Energy>
-25.679

$$$$
Compound 180
Actelion Java MolfileCreator 1.0

 31 32  0  0  0  0  0  0  0  0999 V2000
   -3.3058   -1.8880   -0.6290 O   0  0  0  0  0  0  0  0  0  0  0  0
   -2.6024   -0.7124   -0.4673 C   0  0  0  0  0  0  0  0  0  0  0  0
   -2.4809   -3.0450   -0.6124 C   0  0  0  0  0  0  0  0  0  0  0  0
   -3.3542    0.3760   -0.4852 N   0  0  0  0  0  0  0  0  0  0  0  0
   -1.2824   -0.7490   -0.3111 N   0  0  0  0  0  0  0  0  0  0  0  0
   -2.6650    1.4965   -0.3286 C   0  0  0  0  0  0  0  0  0  0  0  0
   -0.7014    0.4337   -0.1630 C   0  0  0  0  0  0  0  0  0  0  0  0
   -3.3205    2.7104   -0.3259 O   0  0  0  0  0  0  0  0  0  0  0  0
   -1.3508    1.5861   -0.1645 N   0  0  0  0  0  0  0  0  0  0  0  0
    0.6521    0.5111    0.0049 N   0  0  0  0  0  0  0  0  0  0  0  0
   -4.7248    2.5913   -0.5126 C   0  0  0  0  0  0  0  0  0  0  0  0
    1.4835   -0.6588    0.0070 C   0  0  0  0  0  0  0  0  0  0  0  0
    2.9128   -0.2644    0.2515 C   0  0  0  0  0  0  0  0  0  0  0  0
    3.8251   -0.1830   -0.7951 C   0  0  0  0  0  0  0  0  0  0  0  0
    3.3719    0.0636    1.5314 C   0  0  0  0  0  0  0  0  0  0  0  0
    5.1213    0.1733   -0.6460 N   0  0  0  0  0  0  0  0  0  0  0  0
    4.6999    0.4370    1.7141 C   0  0  0  0  0  0  0  0  0  0  0  0
    5.5284    0.4748    0.6054 C   0  0  0  0  0  0  0  0  0  0  0  0
   -3.1270   -3.9176   -0.7486 H   0  0  0  0  0  0  0  0  0  0  0  0
   -1.7613   -3.0329   -1.4385 H   0  0  0  0  0  0  0  0  0  0  0  0
   -1.9713   -3.1568    0.3511 H   0  0  0  0  0  0  0  0  0  0  0  0
    1.0342    1.4408    0.0921 H   0  0  0  0  0  0  0  0  0  0  0  0
   -5.1498    3.5997   -0.4985 H   0  0  0  0  0  0  0  0  0  0  0  0
   -4.9610    2.1458   -1.4851 H   0  0  0  0  0  0  0  0  0  0  0  0
   -5.1883    2.0252    0.3029 H   0  0  0  0  0  0  0  0  0  0  0  0
    1.1731   -1.3603    0.7921 H   0  0  0  0  0  0  0  0  0  0  0  0
    1.4030   -1.1924   -0.9483 H   0  0  0  0  0  0  0  0  0  0  0  0
    3.5335   -0.4059   -1.8184 H   0  0  0  0  0  0  0  0  0  0  0  0
    2.6969    0.0323    2.3835 H   0  0  0  0  0  0  0  0  0  0  0  0
    5.0790    0.6947    2.6967 H   0  0  0  0  0  0  0  0  0  0  0  0
    6.5726    0.7599    0.6963 H   0  0  0  0  0  0  0  0  0  0  0  0
  1  2  1  0  0  0  0
  1  3  1  0  0  0  0
  2  4  2  0  0  0  0
  2  5  1  0  0  0  0
  4  6  1  0  0  0  0
  5  7  2  0  0  0  0
  6  8  1  0  0  0  0
  6  9  2  0  0  0  0
  7 10  1  0  0  0  0
  8 11  1  0  0  0  0
 10 12  1  0  0  0  0
 12 13  1  0  0  0  0
 13 14  2  0  0  0  0
 13 15  1  0  0  0  0
 14 16  1  0  0  0  0
 15 17  2  0  0  0  0
 16 18  2  0  0  0  0
  7  9  1  0  0  0  0
 17 18  1  0  0  0  0
  3 19  1  0  0  0  0
  3 20  1  0  0  0  0
  3 21  1  0  0  0  0
 10 22  1  0  0  0  0
 11 23  1  0  0  0  0
 11 24  1  0  0  0  0
 11 25  1  0  0  0  0
 12 26  1  0  0  0  0
 12 27  1  0  0  0  0
 14 28  1  0  0  0  0
 15 29  1  0  0  0  0
 17 30  1  0  0  0  0
 18 31  1  0  0  0  0
M  END
>  <Column 1>
COc1nc(NCc2cccnc2)nc(OC)n1 ZINC000000034188

>  <Total Molweight>
247.257

>  <cLogP>
1.0054

>  <cLogS>
-2.426

>  <H-Acceptors>
7

>  <H-Donors>
1

>  <Total Surface Area>
197.8

>  <MMFF94 Energy>
-190.87

$$$$
Compound 181
Actelion Java MolfileCreator 1.0

 35 37  0  0  0  0  0  0  0  0999 V2000
   -2.2791   -0.4880    1.4647 S   0  0  0  0  0  0  0  0  0  0  0  0
   -2.1226   -1.9126    1.6650 O   0  0  0  0  0  0  0  0  0  0  0  0
   -3.4296    0.1582    2.0743 O   0  0  0  0  0  0  0  0  0  0  0  0
   -0.9594    0.2653    2.2218 N   0  0  0  0  0  0  0  0  0  0  0  0
   -2.2200   -0.0504   -0.2150 C   0  0  0  0  0  0  0  0  0  0  0  0
    0.3418    0.1673    1.6469 C   0  0  0  0  0  0  0  0  0  0  0  0
   -1.7466   -1.0405   -1.2111 C   0  0  0  0  0  0  0  0  0  0  0  0
   -2.5945    1.1732   -0.6507 C   0  0  0  0  0  0  0  0  0  0  0  0
    1.1095    1.3111    1.4731 C   0  0  0  0  0  0  0  0  0  0  0  0
    0.9059   -1.0427    1.2658 C   0  0  0  0  0  0  0  0  0  0  0  0
   -1.2815   -2.1369   -0.9260 O   0  0  0  0  0  0  0  0  0  0  0  0
   -1.8108   -0.6588   -2.5256 N   0  0  0  0  0  0  0  0  0  0  0  0
   -2.5719    1.4498   -2.0039 N   0  0  0  0  0  0  0  0  0  0  0  0
   -3.0489    2.3335    0.1970 C   0  0  0  0  0  0  0  0  0  0  0  0
    2.3434    1.3289    0.9176 N   0  0  0  0  0  0  0  0  0  0  0  0
    2.1836   -1.0681    0.6864 C   0  0  0  0  0  0  0  0  0  0  0  0
   -2.1974    0.5657   -2.9736 C   0  0  0  0  0  0  0  0  0  0  0  0
    2.8719    0.1545    0.5291 C   0  0  0  0  0  0  0  0  0  0  0  0
    2.7743   -2.2718    0.2655 C   0  0  0  0  0  0  0  0  0  0  0  0
   -2.2042    0.8646   -4.1614 O   0  0  0  0  0  0  0  0  0  0  0  0
    4.1350    0.1273   -0.0464 C   0  0  0  0  0  0  0  0  0  0  0  0
    4.0432   -2.2701   -0.3097 C   0  0  0  0  0  0  0  0  0  0  0  0
    4.7255   -1.0687   -0.4657 C   0  0  0  0  0  0  0  0  0  0  0  0
   -1.2242    1.1306    2.6903 H   0  0  0  0  0  0  0  0  0  0  0  0
    0.7446    2.2890    1.7732 H   0  0  0  0  0  0  0  0  0  0  0  0
    0.3680   -1.9768    1.4127 H   0  0  0  0  0  0  0  0  0  0  0  0
   -1.5031   -1.3262   -3.2166 H   0  0  0  0  0  0  0  0  0  0  0  0
   -2.8574    2.3603   -2.3520 H   0  0  0  0  0  0  0  0  0  0  0  0
   -2.7920    3.2878   -0.2783 H   0  0  0  0  0  0  0  0  0  0  0  0
   -2.5684    2.3571    1.1777 H   0  0  0  0  0  0  0  0  0  0  0  0
   -4.1355    2.3066    0.3265 H   0  0  0  0  0  0  0  0  0  0  0  0
    2.2441   -3.2157    0.3800 H   0  0  0  0  0  0  0  0  0  0  0  0
    4.6759    1.0625   -0.1713 H   0  0  0  0  0  0  0  0  0  0  0  0
    4.4959   -3.2035   -0.6347 H   0  0  0  0  0  0  0  0  0  0  0  0
    5.7164   -1.0565   -0.9124 H   0  0  0  0  0  0  0  0  0  0  0  0
  1  2  2  0  0  0  0
  1  3  2  0  0  0  0
  1  4  1  0  0  0  0
  1  5  1  0  0  0  0
  4  6  1  0  0  0  0
  5  7  1  0  0  0  0
  5  8  2  0  0  0  0
  6  9  1  0  0  0  0
  6 10  2  0  0  0  0
  7 11  2  0  0  0  0
  7 12  1  0  0  0  0
  8 13  1  0  0  0  0
  8 14  1  0  0  0  0
  9 15  2  0  0  0  0
 10 16  1  0  0  0  0
 12 17  1  0  0  0  0
 15 18  1  0  0  0  0
 16 19  2  0  0  0  0
 17 20  2  0  0  0  0
 18 21  2  0  0  0  0
 19 22  1  0  0  0  0
 21 23  1  0  0  0  0
 13 17  1  0  0  0  0
 16 18  1  0  0  0  0
 22 23  2  0  0  0  0
  4 24  1  0  0  0  0
  9 25  1  0  0  0  0
 10 26  1  0  0  0  0
 12 27  1  0  0  0  0
 13 28  1  0  0  0  0
 14 29  1  0  0  0  0
 14 30  1  0  0  0  0
 14 31  1  0  0  0  0
 19 32  1  0  0  0  0
 21 33  1  0  0  0  0
 22 34  1  0  0  0  0
 23 35  1  0  0  0  0
M  END
>  <Column 1>
Cc1[nH]c(=O)[nH]c(=O)c1S(=O)(=O)Nc1cnc2ccccc2c1 ZINC000000034199

>  <Total Molweight>
332.339

>  <cLogP>
0.362

>  <cLogS>
-4.455

>  <H-Acceptors>
8

>  <H-Donors>
3

>  <Total Surface Area>
226.76

>  <MMFF94 Energy>
-104.2

$$$$
Compound 182
Actelion Java MolfileCreator 1.0

 34 35  0  0  0  0  0  0  0  0999 V2000
    0.0000   -0.2423    2.5063 S   0  0  0  0  0  0  0  0  0  0  0  0
    0.1514   -1.5308    3.1456 O   0  0  0  0  0  0  0  0  0  0  0  0
   -0.9415    0.7348    3.0052 O   0  0  0  0  0  0  0  0  0  0  0  0
    1.4994    0.4921    2.4715 N   0  0  0  0  0  0  0  0  0  0  0  0
   -0.3464   -0.4994    0.7680 C   0  0  0  0  0  0  0  0  0  0  0  0
    2.7086   -0.2807    2.2125 C   0  0  0  0  0  0  0  0  0  0  0  0
   -0.6883    0.5599   -0.1016 C   0  0  0  0  0  0  0  0  0  0  0  0
   -0.3058   -1.8246    0.3062 C   0  0  0  0  0  0  0  0  0  0  0  0
    3.4192   -0.5819    3.5180 C   0  0  0  0  0  0  0  0  0  0  0  0
   -1.0235    0.2176   -1.4375 C   0  0  0  0  0  0  0  0  0  0  0  0
   -0.7332    1.9938    0.3675 C   0  0  0  0  0  0  0  0  0  0  0  0
   -0.6032   -2.1243   -1.0218 C   0  0  0  0  0  0  0  0  0  0  0  0
   -1.4437    1.2222   -2.3253 N   0  0  0  0  0  0  0  0  0  0  0  0
   -0.9764   -1.1132   -1.9117 C   0  0  0  0  0  0  0  0  0  0  0  0
   -0.6629    1.6984   -3.3128 N   0  0  0  0  0  0  0  0  0  0  0  0
   -2.6527    1.8596   -2.3642 C   0  0  0  0  0  0  0  0  0  0  0  0
   -1.3000   -1.4806   -3.3368 C   0  0  0  0  0  0  0  0  0  0  0  0
   -1.3984    2.6152   -3.9294 N   0  0  0  0  0  0  0  0  0  0  0  0
   -2.6404    2.7270   -3.3499 N   0  0  0  0  0  0  0  0  0  0  0  0
    1.5592    1.3958    2.9367 H   0  0  0  0  0  0  0  0  0  0  0  0
    2.4850   -1.2076    1.6760 H   0  0  0  0  0  0  0  0  0  0  0  0
    3.3620    0.3137    1.5652 H   0  0  0  0  0  0  0  0  0  0  0  0
   -0.0436   -2.6407    0.9784 H   0  0  0  0  0  0  0  0  0  0  0  0
    3.6765    0.3417    4.0475 H   0  0  0  0  0  0  0  0  0  0  0  0
    4.3436   -1.1362    3.3294 H   0  0  0  0  0  0  0  0  0  0  0  0
    2.7904   -1.1826    4.1829 H   0  0  0  0  0  0  0  0  0  0  0  0
   -0.5762    2.7006   -0.4530 H   0  0  0  0  0  0  0  0  0  0  0  0
    0.0662    2.2168    1.0773 H   0  0  0  0  0  0  0  0  0  0  0  0
   -1.7025    2.2080    0.8278 H   0  0  0  0  0  0  0  0  0  0  0  0
   -0.5540   -3.1614   -1.3505 H   0  0  0  0  0  0  0  0  0  0  0  0
   -3.4625    1.6560   -1.6810 H   0  0  0  0  0  0  0  0  0  0  0  0
   -2.2779   -1.0835   -3.6271 H   0  0  0  0  0  0  0  0  0  0  0  0
   -1.3443   -2.5671   -3.4687 H   0  0  0  0  0  0  0  0  0  0  0  0
   -0.5300   -1.0952   -4.0120 H   0  0  0  0  0  0  0  0  0  0  0  0
  1  2  2  0  0  0  0
  1  3  2  0  0  0  0
  1  4  1  0  0  0  0
  1  5  1  0  0  0  0
  4  6  1  0  0  0  0
  5  7  2  0  0  0  0
  5  8  1  0  0  0  0
  6  9  1  0  0  0  0
  7 10  1  0  0  0  0
  7 11  1  0  0  0  0
  8 12  2  0  0  0  0
 10 13  1  0  0  0  0
 10 14  2  0  0  0  0
 13 15  1  0  0  0  0
 13 16  1  0  0  0  0
 14 17  1  0  0  0  0
 15 18  2  0  0  0  0
 16 19  2  0  0  0  0
 12 14  1  0  0  0  0
 18 19  1  0  0  0  0
  4 20  1  0  0  0  0
  6 21  1  0  0  0  0
  6 22  1  0  0  0  0
  8 23  1  0  0  0  0
  9 24  1  0  0  0  0
  9 25  1  0  0  0  0
  9 26  1  0  0  0  0
 11 27  1  0  0  0  0
 11 28  1  0  0  0  0
 11 29  1  0  0  0  0
 12 30  1  0  0  0  0
 16 31  1  0  0  0  0
 17 32  1  0  0  0  0
 17 33  1  0  0  0  0
 17 34  1  0  0  0  0
M  END
>  <Column 1>
CCNS(=O)(=O)c1ccc(C)c(-n2cnnn2)c1C ZINC000000034393

>  <Total Molweight>
281.339

>  <cLogP>
0.7777

>  <cLogS>
-2.456

>  <H-Acceptors>
7

>  <H-Donors>
1

>  <Total Surface Area>
209.08

>  <MMFF94 Energy>
-11.635

$$$$
Compound 183
Actelion Java MolfileCreator 1.0

 35 38  0  0  1  0  0  0  0  0999 V2000
    4.1565   -2.0359    1.6284 O   0  0  0  0  0  0  0  0  0  0  0  0
    3.3923   -1.3895    0.9139 C   0  0  0  0  0  0  0  0  0  0  0  0
    3.4565   -1.3945   -0.6157 C   0  0  0  0  0  0  0  0  0  0  0  0
    2.3842   -0.4163    1.4961 C   0  0  0  0  0  0  0  0  0  0  0  0
    2.1460   -1.7313   -1.0778 O   0  0  0  0  0  0  0  0  0  0  0  0
    3.7335   -0.0455   -1.0248 O   0  0  0  0  0  0  0  0  0  0  0  0
    1.1518   -0.2563    0.5817 C   0  0  0  0  0  0  0  0  0  0  0  0
    1.4464   -0.4905   -0.9192 C   0  0  0  0  0  0  0  0  0  0  0  0
    2.4756    0.4719   -1.4793 C   0  0  0  0  0  0  0  0  0  0  0  0
    0.0423   -1.1035    1.0040 N   0  0  0  0  0  0  0  0  0  0  0  0
    0.2519   -2.3671    1.4081 N   0  0  0  0  0  0  0  0  0  0  0  0
   -1.3059   -0.8322    1.0074 C   0  0  0  0  0  0  0  0  0  0  0  0
   -0.9516   -2.8589    1.6567 N   0  0  0  0  0  0  0  0  0  0  0  0
   -1.9256   -1.9262    1.4055 N   0  0  0  0  0  0  0  0  0  0  0  0
   -1.9282    0.4199    0.5960 C   0  0  0  0  0  0  0  0  0  0  0  0
   -2.6045    0.5291   -0.6363 C   0  0  0  0  0  0  0  0  0  0  0  0
   -1.7698    1.5600    1.4014 C   0  0  0  0  0  0  0  0  0  0  0  0
   -3.1204    1.7766   -1.0238 C   0  0  0  0  0  0  0  0  0  0  0  0
   -2.8281   -0.6658   -1.5259 C   0  0  0  0  0  0  0  0  0  0  0  0
   -2.2846    2.7926    1.0002 C   0  0  0  0  0  0  0  0  0  0  0  0
   -2.9576    2.9002   -0.2127 C   0  0  0  0  0  0  0  0  0  0  0  0
    4.2091   -2.0941   -0.9869 H   0  0  0  0  0  0  0  0  0  0  0  0
    2.9003    0.5484    1.5768 H   0  0  0  0  0  0  0  0  0  0  0  0
    2.1118   -0.7303    2.5095 H   0  0  0  0  0  0  0  0  0  0  0  0
    0.7976    0.7730    0.7078 H   0  0  0  0  0  0  0  0  0  0  0  0
    0.5300   -0.4954   -1.5171 H   0  0  0  0  0  0  0  0  0  0  0  0
    2.3447    1.5069   -1.1520 H   0  0  0  0  0  0  0  0  0  0  0  0
    2.4895    0.4409   -2.5741 H   0  0  0  0  0  0  0  0  0  0  0  0
   -1.2621    1.4902    2.3620 H   0  0  0  0  0  0  0  0  0  0  0  0
   -3.6643    1.8796   -1.9613 H   0  0  0  0  0  0  0  0  0  0  0  0
   -1.8808   -1.1646   -1.7520 H   0  0  0  0  0  0  0  0  0  0  0  0
   -3.5088   -1.3739   -1.0426 H   0  0  0  0  0  0  0  0  0  0  0  0
   -3.2744   -0.3734   -2.4825 H   0  0  0  0  0  0  0  0  0  0  0  0
   -2.1716    3.6657    1.6386 H   0  0  0  0  0  0  0  0  0  0  0  0
   -3.3699    3.8575   -0.5235 H   0  0  0  0  0  0  0  0  0  0  0  0
  1  2  2  0  0  0  0
  2  3  1  0  0  0  0
  2  4  1  0  0  0  0
  3  5  1  0  0  0  0
  3  6  1  0  0  0  0
  4  7  1  0  0  0  0
  5  8  1  0  0  0  0
  6  9  1  0  0  0  0
  7 10  1  0  0  0  0
 10 11  1  0  0  0  0
 10 12  1  0  0  0  0
 11 13  2  0  0  0  0
 12 14  2  0  0  0  0
 12 15  1  0  0  0  0
 15 16  2  0  0  0  0
 15 17  1  0  0  0  0
 16 18  1  0  0  0  0
 16 19  1  0  0  0  0
 17 20  2  0  0  0  0
 18 21  2  0  0  0  0
  7  8  1  0  0  0  0
  8  9  1  0  0  0  0
 13 14  1  0  0  0  0
 20 21  1  0  0  0  0
  3 22  1  0  0  0  0
  4 23  1  0  0  0  0
  4 24  1  0  0  0  0
  7 25  1  0  0  0  0
  8 26  1  0  0  0  0
  9 27  1  0  0  0  0
  9 28  1  0  0  0  0
 17 29  1  0  0  0  0
 18 30  1  0  0  0  0
 19 31  1  0  0  0  0
 19 32  1  0  0  0  0
 19 33  1  0  0  0  0
 20 34  1  0  0  0  0
 21 35  1  0  0  0  0
M  END
>  <Column 1>
Cc1ccccc1-c1nnnn1[C@H]1CC(=O)[C@@H]2OC[C@H]1O2 ZINC000000034418

>  <Total Molweight>
286.29

>  <cLogP>
1.1038

>  <cLogS>
-3.181

>  <H-Acceptors>
7

>  <H-Donors>
0

>  <Total Surface Area>
206.53

>  <MMFF94 Energy>
78.784

$$$$
Compound 184
Actelion Java MolfileCreator 1.0

 25 26  0  0  0  0  0  0  0  0999 V2000
   -0.9534    0.6355   -1.5099 O   0  0  0  0  0  0  0  0  0  0  0  0
   -0.2078    0.2411   -0.4308 C   0  0  0  0  0  0  0  0  0  0  0  0
   -1.9118   -0.2784   -2.0325 C   0  0  0  0  0  0  0  0  0  0  0  0
    0.5712    1.2200    0.2121 C   0  0  0  0  0  0  0  0  0  0  0  0
   -0.1946   -1.0726    0.0671 C   0  0  0  0  0  0  0  0  0  0  0  0
    0.6234    2.5544   -0.2503 N   0  0  0  0  0  0  0  0  0  0  0  0
    1.3189    0.8889    1.3528 C   0  0  0  0  0  0  0  0  0  0  0  0
    0.5614   -1.4048    1.1963 C   0  0  0  0  0  0  0  0  0  0  0  0
    0.8434    3.5991    0.5843 N   0  0  0  0  0  0  0  0  0  0  0  0
    0.5589    3.0464   -1.5295 C   0  0  0  0  0  0  0  0  0  0  0  0
    1.3109   -0.4183    1.8357 C   0  0  0  0  0  0  0  0  0  0  0  0
    0.6510   -2.6429    1.7705 O   0  0  0  0  0  0  0  0  0  0  0  0
    0.8681    4.6799   -0.1832 N   0  0  0  0  0  0  0  0  0  0  0  0
    0.6964    4.3525   -1.5024 N   0  0  0  0  0  0  0  0  0  0  0  0
   -0.1001   -3.6943    1.1773 C   0  0  0  0  0  0  0  0  0  0  0  0
   -1.4183   -1.1371   -2.4988 H   0  0  0  0  0  0  0  0  0  0  0  0
   -2.4781    0.2421   -2.8108 H   0  0  0  0  0  0  0  0  0  0  0  0
   -2.6208   -0.5965   -1.2610 H   0  0  0  0  0  0  0  0  0  0  0  0
   -0.7751   -1.8422   -0.4251 H   0  0  0  0  0  0  0  0  0  0  0  0
    1.9202    1.6342    1.8718 H   0  0  0  0  0  0  0  0  0  0  0  0
    0.4336    2.4346   -2.4083 H   0  0  0  0  0  0  0  0  0  0  0  0
    1.8964   -0.6708    2.7173 H   0  0  0  0  0  0  0  0  0  0  0  0
   -1.1737   -3.4822    1.2149 H   0  0  0  0  0  0  0  0  0  0  0  0
    0.0803   -4.6036    1.7587 H   0  0  0  0  0  0  0  0  0  0  0  0
    0.2305   -3.8841    0.1508 H   0  0  0  0  0  0  0  0  0  0  0  0
  1  2  1  0  0  0  0
  1  3  1  0  0  0  0
  2  4  2  0  0  0  0
  2  5  1  0  0  0  0
  4  6  1  0  0  0  0
  4  7  1  0  0  0  0
  5  8  2  0  0  0  0
  6  9  1  0  0  0  0
  6 10  1  0  0  0  0
  7 11  2  0  0  0  0
  8 12  1  0  0  0  0
  9 13  2  0  0  0  0
 10 14  2  0  0  0  0
 12 15  1  0  0  0  0
  8 11  1  0  0  0  0
 13 14  1  0  0  0  0
  3 16  1  0  0  0  0
  3 17  1  0  0  0  0
  3 18  1  0  0  0  0
  5 19  1  0  0  0  0
  7 20  1  0  0  0  0
 10 21  1  0  0  0  0
 11 22  1  0  0  0  0
 15 23  1  0  0  0  0
 15 24  1  0  0  0  0
 15 25  1  0  0  0  0
M  END
>  <Column 1>
COc1ccc(-n2cnnn2)c(OC)c1 ZINC000000034941

>  <Total Molweight>
206.204

>  <cLogP>
0.4182

>  <cLogS>
-1.951

>  <H-Acceptors>
6

>  <H-Donors>
0

>  <Total Surface Area>
163.02

>  <MMFF94 Energy>
42.224

$$$$
Compound 185
Actelion Java MolfileCreator 1.0

 27 27  0  0  0  0  0  0  0  0999 V2000
   -1.0348   -1.5924    0.7163 S   0  0  0  0  0  0  0  0  0  0  0  0
   -1.1815   -2.8206    1.4634 O   0  0  0  0  0  0  0  0  0  0  0  0
   -1.7719   -1.3817   -0.5072 O   0  0  0  0  0  0  0  0  0  0  0  0
   -1.3197   -0.3001    1.7720 N   0  0  0  0  0  0  0  0  0  0  0  0
    0.6141   -1.4129    0.3941 N   0  0  0  0  0  0  0  0  0  0  0  0
   -0.6730   -0.4290    3.0951 C   0  0  0  0  0  0  0  0  0  0  0  0
   -2.7477    0.0582    1.8939 C   0  0  0  0  0  0  0  0  0  0  0  0
    0.9775   -0.3064   -0.4436 C   0  0  0  0  0  0  0  0  0  0  0  0
    1.0322   -0.4666   -1.8318 C   0  0  0  0  0  0  0  0  0  0  0  0
    1.2281    0.9390    0.1264 C   0  0  0  0  0  0  0  0  0  0  0  0
    1.3458    0.6145   -2.6602 C   0  0  0  0  0  0  0  0  0  0  0  0
    1.5714    2.0156   -0.6887 C   0  0  0  0  0  0  0  0  0  0  0  0
    1.4580    0.4434   -4.0304 N   0  0  0  0  0  0  0  0  0  0  0  0
    1.6425    1.8473   -2.0736 C   0  0  0  0  0  0  0  0  0  0  0  0
    0.9322   -2.3017    0.0084 H   0  0  0  0  0  0  0  0  0  0  0  0
   -1.1801   -1.1776    3.7114 H   0  0  0  0  0  0  0  0  0  0  0  0
    0.3828   -0.6958    2.9973 H   0  0  0  0  0  0  0  0  0  0  0  0
   -0.7117    0.5340    3.6149 H   0  0  0  0  0  0  0  0  0  0  0  0
   -3.3291   -0.7755    2.2995 H   0  0  0  0  0  0  0  0  0  0  0  0
   -3.1538    0.3525    0.9218 H   0  0  0  0  0  0  0  0  0  0  0  0
   -2.8626    0.9183    2.5618 H   0  0  0  0  0  0  0  0  0  0  0  0
    0.8139   -1.4337   -2.2740 H   0  0  0  0  0  0  0  0  0  0  0  0
    1.1722    1.0744    1.2016 H   0  0  0  0  0  0  0  0  0  0  0  0
    1.7854    2.9853   -0.2478 H   0  0  0  0  0  0  0  0  0  0  0  0
    1.5777    1.2506   -4.6273 H   0  0  0  0  0  0  0  0  0  0  0  0
    1.1139   -0.4061   -4.4579 H   0  0  0  0  0  0  0  0  0  0  0  0
    1.9222    2.6944   -2.6942 H   0  0  0  0  0  0  0  0  0  0  0  0
  1  2  2  0  0  0  0
  1  3  2  0  0  0  0
  1  4  1  0  0  0  0
  1  5  1  0  0  0  0
  4  6  1  0  0  0  0
  4  7  1  0  0  0  0
  5  8  1  0  0  0  0
  8  9  2  0  0  0  0
  8 10  1  0  0  0  0
  9 11  1  0  0  0  0
 10 12  2  0  0  0  0
 11 13  1  0  0  0  0
 11 14  2  0  0  0  0
 12 14  1  0  0  0  0
  5 15  1  0  0  0  0
  6 16  1  0  0  0  0
  6 17  1  0  0  0  0
  6 18  1  0  0  0  0
  7 19  1  0  0  0  0
  7 20  1  0  0  0  0
  7 21  1  0  0  0  0
  9 22  1  0  0  0  0
 10 23  1  0  0  0  0
 12 24  1  0  0  0  0
 13 25  1  0  0  0  0
 13 26  1  0  0  0  0
 14 27  1  0  0  0  0
M  END
>  <Column 1>
CN(C)S(=O)(=O)Nc1cccc(N)c1 ZINC000000035131

>  <Total Molweight>
215.276

>  <cLogP>
-0.1113

>  <cLogS>
-1.812

>  <H-Acceptors>
5

>  <H-Donors>
2

>  <Total Surface Area>
156.64

>  <MMFF94 Energy>
-146.4

$$$$
Compound 186
Actelion Java MolfileCreator 1.0

 28 30  0  0  0  0  0  0  0  0999 V2000
   -0.2364   -4.9740    0.9459 N   0  0  0  0  0  0  0  0  0  0  0  0
    0.1180   -3.8976    0.2301 N   0  0  0  0  0  0  0  0  0  0  0  0
   -0.8624   -4.4088    1.9706 C   0  0  0  0  0  0  0  0  0  0  0  0
   -0.2905   -2.7316    0.8213 C   0  0  0  0  0  0  0  0  0  0  0  0
   -0.9198   -3.0525    1.9378 N   0  0  0  0  0  0  0  0  0  0  0  0
   -1.4170   -5.0458    2.9887 N   0  0  0  0  0  0  0  0  0  0  0  0
   -0.0630   -1.3832    0.2979 C   0  0  0  0  0  0  0  0  0  0  0  0
    0.6187   -1.1377   -0.9016 C   0  0  0  0  0  0  0  0  0  0  0  0
   -0.5429   -0.2823    1.0186 C   0  0  0  0  0  0  0  0  0  0  0  0
    0.8140    0.1736   -1.3657 C   0  0  0  0  0  0  0  0  0  0  0  0
   -0.3484    1.0243    0.5561 C   0  0  0  0  0  0  0  0  0  0  0  0
    0.3325    1.2730   -0.6422 C   0  0  0  0  0  0  0  0  0  0  0  0
    0.5117    2.6569   -1.0857 C   0  0  0  0  0  0  0  0  0  0  0  0
    0.0925    3.7475   -0.4688 N   0  0  0  0  0  0  0  0  0  0  0  0
    1.1527    3.0525   -2.2296 N   0  0  0  0  0  0  0  0  0  0  0  0
    0.5027    4.7606   -1.2746 C   0  0  0  0  0  0  0  0  0  0  0  0
    1.1570    4.3859   -2.3666 N   0  0  0  0  0  0  0  0  0  0  0  0
    0.2284    6.0060   -0.9227 N   0  0  0  0  0  0  0  0  0  0  0  0
    0.6265   -4.0307   -0.6338 H   0  0  0  0  0  0  0  0  0  0  0  0
   -1.3940   -6.0523    3.0469 H   0  0  0  0  0  0  0  0  0  0  0  0
   -1.8748   -4.5351    3.7287 H   0  0  0  0  0  0  0  0  0  0  0  0
    1.0139   -1.9505   -1.5042 H   0  0  0  0  0  0  0  0  0  0  0  0
   -1.0778   -0.4347    1.9558 H   0  0  0  0  0  0  0  0  0  0  0  0
    1.3495    0.3032   -2.3018 H   0  0  0  0  0  0  0  0  0  0  0  0
   -0.7369    1.8545    1.1455 H   0  0  0  0  0  0  0  0  0  0  0  0
    1.5966    2.4864   -2.9402 H   0  0  0  0  0  0  0  0  0  0  0  0
    0.5172    6.7838   -1.4962 H   0  0  0  0  0  0  0  0  0  0  0  0
   -0.2763    6.2019   -0.0714 H   0  0  0  0  0  0  0  0  0  0  0  0
  1  2  1  0  0  0  0
  1  3  2  0  0  0  0
  2  4  1  0  0  0  0
  3  5  1  0  0  0  0
  3  6  1  0  0  0  0
  4  7  1  0  0  0  0
  7  8  2  0  0  0  0
  7  9  1  0  0  0  0
  8 10  1  0  0  0  0
  9 11  2  0  0  0  0
 10 12  2  0  0  0  0
 12 13  1  0  0  0  0
 13 14  2  0  0  0  0
 13 15  1  0  0  0  0
 14 16  1  0  0  0  0
 15 17  1  0  0  0  0
 16 18  1  0  0  0  0
  4  5  2  0  0  0  0
 11 12  1  0  0  0  0
 16 17  2  0  0  0  0
  2 19  1  0  0  0  0
  6 20  1  0  0  0  0
  6 21  1  0  0  0  0
  8 22  1  0  0  0  0
  9 23  1  0  0  0  0
 10 24  1  0  0  0  0
 11 25  1  0  0  0  0
 15 26  1  0  0  0  0
 18 27  1  0  0  0  0
 18 28  1  0  0  0  0
M  END
>  <Column 1>
Nc1n[nH]c(-c2ccc(-c3nc(N)n[nH]3)cc2)n1 ZINC000000035898

>  <Total Molweight>
242.245

>  <cLogP>
-0.1302

>  <cLogS>
-4.5

>  <H-Acceptors>
8

>  <H-Donors>
4

>  <Total Surface Area>
184

>  <MMFF94 Energy>
-130.5

$$$$
Compound 187
Actelion Java MolfileCreator 1.0

 29 31  0  0  0  0  0  0  0  0999 V2000
   -3.4244   -2.6083    1.2220 O   0  0  0  0  0  0  0  0  0  0  0  0
   -3.9266   -1.6582    1.8397 N   0  0  0  0  0  0  0  0  0  0  0  0
   -4.8171   -1.7708    2.6952 O   0  0  0  0  0  0  0  0  0  0  0  0
   -3.4388   -0.3072    1.5360 C   0  0  0  0  0  0  0  0  0  0  0  0
   -2.3737   -0.1375    0.6408 C   0  0  0  0  0  0  0  0  0  0  0  0
   -4.0448    0.8004    2.1421 C   0  0  0  0  0  0  0  0  0  0  0  0
   -1.8979    1.1522    0.3517 C   0  0  0  0  0  0  0  0  0  0  0  0
   -3.5808    2.0822    1.8469 C   0  0  0  0  0  0  0  0  0  0  0  0
   -2.5180    2.2567    0.9564 C   0  0  0  0  0  0  0  0  0  0  0  0
   -0.7641    1.3505   -0.6260 C   0  0  0  0  0  0  0  0  0  0  0  0
    0.3070    0.4666   -0.2955 O   0  0  0  0  0  0  0  0  0  0  0  0
    1.3304    0.6146   -1.2503 N   0  0  0  0  0  0  0  0  0  0  0  0
    2.3018   -0.2161   -1.0258 C   0  0  0  0  0  0  0  0  0  0  0  0
    2.2948   -1.1151    0.0160 N   0  0  0  0  0  0  0  0  0  0  0  0
    3.4690   -0.2060   -1.9247 C   0  0  0  0  0  0  0  0  0  0  0  0
    3.3125   -1.9075    0.1521 C   0  0  0  0  0  0  0  0  0  0  0  0
    3.7424    0.5170   -2.9641 N   0  0  0  0  0  0  0  0  0  0  0  0
    4.5329   -1.1648   -1.6310 C   0  0  0  0  0  0  0  0  0  0  0  0
    4.4427   -1.9700   -0.6361 N   0  0  0  0  0  0  0  0  0  0  0  0
    5.0251    0.0584   -3.4133 O   0  0  0  0  0  0  0  0  0  0  0  0
    5.4675   -0.9602   -2.5773 N   0  0  0  0  0  0  0  0  0  0  0  0
   -1.8996   -0.9976    0.1691 H   0  0  0  0  0  0  0  0  0  0  0  0
   -4.8725    0.6828    2.8384 H   0  0  0  0  0  0  0  0  0  0  0  0
   -4.0464    2.9490    2.3112 H   0  0  0  0  0  0  0  0  0  0  0  0
   -2.1720    3.2664    0.7401 H   0  0  0  0  0  0  0  0  0  0  0  0
   -1.1238    1.1408   -1.6404 H   0  0  0  0  0  0  0  0  0  0  0  0
   -0.3936    2.3815   -0.5856 H   0  0  0  0  0  0  0  0  0  0  0  0
    3.2873   -2.6223    0.9933 H   0  0  0  0  0  0  0  0  0  0  0  0
    6.3507   -1.4239   -2.7219 H   0  0  0  0  0  0  0  0  0  0  0  0
  1  2  2  0  0  0  0
  2  3  1  0  0  0  0
  2  4  1  0  0  0  0
  4  5  2  0  0  0  0
  4  6  1  0  0  0  0
  5  7  1  0  0  0  0
  6  8  2  0  0  0  0
  7  9  2  0  0  0  0
  7 10  1  0  0  0  0
 10 11  1  0  0  0  0
 11 12  1  0  0  0  0
 12 13  2  0  0  0  0
 13 14  1  0  0  0  0
 13 15  1  0  0  0  0
 14 16  2  0  0  0  0
 15 17  2  0  0  0  0
 15 18  1  0  0  0  0
 16 19  1  0  0  0  0
 17 20  1  0  0  0  0
 18 21  1  0  0  0  0
  8  9  1  0  0  0  0
 18 19  2  0  0  0  0
 20 21  1  0  0  0  0
  5 22  1  0  0  0  0
  6 23  1  0  0  0  0
  8 24  1  0  0  0  0
  9 25  1  0  0  0  0
 10 26  1  0  0  0  0
 10 27  1  0  0  0  0
 16 28  1  0  0  0  0
 21 29  1  0  0  0  0
M  CHG  2   2   1   3  -1
M  END
>  <Column 1>
O=[N+]([O-])c1cccc(CON=c2ncnc3[nH]onc2-3)c1 ZINC000000036789

>  <Total Molweight>
288.223

>  <cLogP>
-0.5904

>  <cLogS>
-3.616

>  <H-Acceptors>
9

>  <H-Donors>
1

>  <Total Surface Area>
208.82

>  <MMFF94 Energy>
82.181

$$$$
Compound 188
Actelion Java MolfileCreator 1.0

 40 41  0  0  1  0  0  0  0  0999 V2000
   -0.4043    0.1617   -2.2656 S   0  0  0  0  0  0  0  0  0  0  0  0
   -0.1588    1.2484   -3.1908 O   0  0  0  0  0  0  0  0  0  0  0  0
   -1.4138   -0.8431   -2.5109 O   0  0  0  0  0  0  0  0  0  0  0  0
    1.0910   -0.6080   -2.0814 N   0  0  0  0  0  0  0  0  0  0  0  0
   -0.8758    0.9611   -0.7585 C   0  0  0  0  0  0  0  0  0  0  0  0
    1.1806   -2.0111   -1.5555 C   0  0  0  0  0  0  0  0  0  0  0  0
   -2.0600    1.5710   -0.5737 N   0  0  0  0  0  0  0  0  0  0  0  0
   -0.0305    0.9946    0.3290 N   0  0  0  0  0  0  0  0  0  0  0  0
    0.6739   -3.0020   -2.5475 C   0  0  0  0  0  0  0  0  0  0  0  0
    2.7167   -2.2720   -1.2774 C   0  0  0  0  0  0  0  0  0  0  0  0
    0.3949   -2.1616   -0.2395 C   0  0  0  0  0  0  0  0  0  0  0  0
   -1.9562    2.0275    0.6946 N   0  0  0  0  0  0  0  0  0  0  0  0
   -0.7144    1.6610    1.2304 C   0  0  0  0  0  0  0  0  0  0  0  0
    0.3275   -3.7854   -3.3316 N   0  0  0  0  0  0  0  0  0  0  0  0
    3.0086   -3.6048   -0.5671 C   0  0  0  0  0  0  0  0  0  0  0  0
    3.6014   -2.1955   -2.5361 C   0  0  0  0  0  0  0  0  0  0  0  0
   -2.8850    2.7556    1.4467 C   0  0  0  0  0  0  0  0  0  0  0  0
   -0.3545    1.9869    2.5050 N   0  0  0  0  0  0  0  0  0  0  0  0
   -2.5666    3.1023    2.7067 C   0  0  0  0  0  0  0  0  0  0  0  0
   -4.1902    3.1127    0.8062 C   0  0  0  0  0  0  0  0  0  0  0  0
   -1.2205    2.6647    3.1995 C   0  0  0  0  0  0  0  0  0  0  0  0
   -0.8500    3.0425    4.6126 C   0  0  0  0  0  0  0  0  0  0  0  0
    1.6067   -0.4600   -2.9495 H   0  0  0  0  0  0  0  0  0  0  0  0
    3.0677   -1.4755   -0.6047 H   0  0  0  0  0  0  0  0  0  0  0  0
    0.4206   -3.1921    0.1328 H   0  0  0  0  0  0  0  0  0  0  0  0
   -0.6675   -1.9253   -0.3480 H   0  0  0  0  0  0  0  0  0  0  0  0
    0.8044   -1.5139    0.5427 H   0  0  0  0  0  0  0  0  0  0  0  0
    2.6324   -4.4595   -1.1378 H   0  0  0  0  0  0  0  0  0  0  0  0
    2.5668   -3.6335    0.4332 H   0  0  0  0  0  0  0  0  0  0  0  0
    4.0876   -3.7436   -0.4344 H   0  0  0  0  0  0  0  0  0  0  0  0
    4.6548   -2.3432   -2.2716 H   0  0  0  0  0  0  0  0  0  0  0  0
    3.3368   -2.9655   -3.2675 H   0  0  0  0  0  0  0  0  0  0  0  0
    3.5363   -1.2192   -3.0240 H   0  0  0  0  0  0  0  0  0  0  0  0
   -3.2194    3.6644    3.3616 H   0  0  0  0  0  0  0  0  0  0  0  0
   -4.8337    3.6809    1.4868 H   0  0  0  0  0  0  0  0  0  0  0  0
   -4.7361    2.2098    0.5127 H   0  0  0  0  0  0  0  0  0  0  0  0
   -4.0275    3.7281   -0.0849 H   0  0  0  0  0  0  0  0  0  0  0  0
   -1.6461    3.6112    5.0997 H   0  0  0  0  0  0  0  0  0  0  0  0
    0.0593    3.6503    4.5962 H   0  0  0  0  0  0  0  0  0  0  0  0
   -0.6608    2.1332    5.1905 H   0  0  0  0  0  0  0  0  0  0  0  0
  1  2  2  0  0  0  0
  1  3  2  0  0  0  0
  1  4  1  0  0  0  0
  1  5  1  0  0  0  0
  4  6  1  0  0  0  0
  5  7  2  0  0  0  0
  5  8  1  0  0  0  0
  6  9  1  0  0  0  0
  6 10  1  0  0  0  0
  6 11  1  0  0  0  0
  7 12  1  0  0  0  0
  8 13  2  0  0  0  0
  9 14  3  0  0  0  0
 10 15  1  0  0  0  0
 10 16  1  0  0  0  0
 12 17  1  0  0  0  0
 13 18  1  0  0  0  0
 17 19  2  0  0  0  0
 17 20  1  0  0  0  0
 18 21  2  0  0  0  0
 21 22  1  0  0  0  0
 12 13  1  0  0  0  0
 19 21  1  0  0  0  0
  4 23  1  0  0  0  0
 10 24  1  0  0  0  0
 11 25  1  0  0  0  0
 11 26  1  0  0  0  0
 11 27  1  0  0  0  0
 15 28  1  0  0  0  0
 15 29  1  0  0  0  0
 15 30  1  0  0  0  0
 16 31  1  0  0  0  0
 16 32  1  0  0  0  0
 16 33  1  0  0  0  0
 19 34  1  0  0  0  0
 20 35  1  0  0  0  0
 20 36  1  0  0  0  0
 20 37  1  0  0  0  0
 22 38  1  0  0  0  0
 22 39  1  0  0  0  0
 22 40  1  0  0  0  0
M  END
>  <Column 1>
Cc1cc(C)n2nc(S(=O)(=O)N[C@@](C)(C#N)C(C)C)nc2n1 ZINC000000036827

>  <Total Molweight>
322.392

>  <cLogP>
0.4871

>  <cLogS>
-0.755

>  <H-Acceptors>
8

>  <H-Donors>
1

>  <Total Surface Area>
240.75

>  <MMFF94 Energy>
99.599

$$$$
Compound 189
Actelion Java MolfileCreator 1.0

 32 34  0  0  0  0  0  0  0  0999 V2000
   -1.3918   -1.3918    0.3273 S   0  0  0  0  0  0  0  0  0  0  0  0
   -1.3159   -2.6673   -0.3518 O   0  0  0  0  0  0  0  0  0  0  0  0
   -2.5778   -0.9909    1.0523 O   0  0  0  0  0  0  0  0  0  0  0  0
   -0.0588   -1.2937    1.3900 N   0  0  0  0  0  0  0  0  0  0  0  0
   -1.0425   -0.1047   -0.8473 C   0  0  0  0  0  0  0  0  0  0  0  0
    1.2631   -1.6627    0.7841 C   0  0  0  0  0  0  0  0  0  0  0  0
   -0.2659   -2.0840    2.6497 C   0  0  0  0  0  0  0  0  0  0  0  0
   -1.0339    1.2219   -0.3936 C   0  0  0  0  0  0  0  0  0  0  0  0
   -0.7951   -0.4372   -2.2021 C   0  0  0  0  0  0  0  0  0  0  0  0
    2.3781   -1.4319    1.8111 C   0  0  0  0  0  0  0  0  0  0  0  0
    0.9073   -1.8436    3.6061 C   0  0  0  0  0  0  0  0  0  0  0  0
   -0.7576    2.1781   -1.3384 C   0  0  0  0  0  0  0  0  0  0  0  0
   -0.5173    0.5646   -3.1391 C   0  0  0  0  0  0  0  0  0  0  0  0
    2.1569   -2.2047    2.9994 O   0  0  0  0  0  0  0  0  0  0  0  0
   -0.6720    3.5590   -1.2053 N   0  0  0  0  0  0  0  0  0  0  0  0
   -0.5045    1.8592   -2.6736 C   0  0  0  0  0  0  0  0  0  0  0  0
   -0.3651    4.1151   -2.4559 C   0  0  0  0  0  0  0  0  0  0  0  0
   -0.2632    3.0450   -3.3570 N   0  0  0  0  0  0  0  0  0  0  0  0
   -0.2150    5.2963   -2.7097 O   0  0  0  0  0  0  0  0  0  0  0  0
    1.2467   -2.7193    0.4929 H   0  0  0  0  0  0  0  0  0  0  0  0
    1.4635   -1.0483   -0.0978 H   0  0  0  0  0  0  0  0  0  0  0  0
   -1.1925   -1.7728    3.1421 H   0  0  0  0  0  0  0  0  0  0  0  0
   -0.3292   -3.1495    2.3993 H   0  0  0  0  0  0  0  0  0  0  0  0
   -1.2359    1.4728    0.6413 H   0  0  0  0  0  0  0  0  0  0  0  0
   -0.8231   -1.4767   -2.5258 H   0  0  0  0  0  0  0  0  0  0  0  0
    2.4537   -0.3720    2.0824 H   0  0  0  0  0  0  0  0  0  0  0  0
    3.3403   -1.7396    1.3903 H   0  0  0  0  0  0  0  0  0  0  0  0
    0.9535   -0.7938    3.9197 H   0  0  0  0  0  0  0  0  0  0  0  0
    0.7863   -2.4565    4.5049 H   0  0  0  0  0  0  0  0  0  0  0  0
   -0.3272    0.3262   -4.1789 H   0  0  0  0  0  0  0  0  0  0  0  0
   -0.8117    4.1056   -0.3710 H   0  0  0  0  0  0  0  0  0  0  0  0
   -0.0553    3.1581   -4.3357 H   0  0  0  0  0  0  0  0  0  0  0  0
  1  2  2  0  0  0  0
  1  3  2  0  0  0  0
  1  4  1  0  0  0  0
  1  5  1  0  0  0  0
  4  6  1  0  0  0  0
  4  7  1  0  0  0  0
  5  8  2  0  0  0  0
  5  9  1  0  0  0  0
  6 10  1  0  0  0  0
  7 11  1  0  0  0  0
  8 12  1  0  0  0  0
  9 13  2  0  0  0  0
 10 14  1  0  0  0  0
 12 15  1  0  0  0  0
 12 16  2  0  0  0  0
 15 17  1  0  0  0  0
 16 18  1  0  0  0  0
 17 19  2  0  0  0  0
 11 14  1  0  0  0  0
 13 16  1  0  0  0  0
 17 18  1  0  0  0  0
  6 20  1  0  0  0  0
  6 21  1  0  0  0  0
  7 22  1  0  0  0  0
  7 23  1  0  0  0  0
  8 24  1  0  0  0  0
  9 25  1  0  0  0  0
 10 26  1  0  0  0  0
 10 27  1  0  0  0  0
 11 28  1  0  0  0  0
 11 29  1  0  0  0  0
 13 30  1  0  0  0  0
 15 31  1  0  0  0  0
 18 32  1  0  0  0  0
M  END
>  <Column 1>
O=c1[nH]c2ccc(S(=O)(=O)N3CCOCC3)cc2[nH]1 ZINC000000036854

>  <Total Molweight>
283.307

>  <cLogP>
-0.4059

>  <cLogS>
-1.764

>  <H-Acceptors>
7

>  <H-Donors>
2

>  <Total Surface Area>
190.85

>  <MMFF94 Energy>
-26.707

$$$$
Compound 190
Actelion Java MolfileCreator 1.0

 37 39  0  0  0  0  0  0  0  0999 V2000
    1.2305   -0.7382   -2.3800 S   0  0  0  0  0  0  0  0  0  0  0  0
    2.5910   -0.3138   -2.6264 O   0  0  0  0  0  0  0  0  0  0  0  0
    0.2691   -0.8594   -3.4544 O   0  0  0  0  0  0  0  0  0  0  0  0
    1.2759   -2.2322   -1.5559 N   0  0  0  0  0  0  0  0  0  0  0  0
    0.5642    0.3577   -1.1499 C   0  0  0  0  0  0  0  0  0  0  0  0
   -0.0662   -2.8111   -1.2180 C   0  0  0  0  0  0  0  0  0  0  0  0
    2.0948   -3.2642   -2.2766 C   0  0  0  0  0  0  0  0  0  0  0  0
    1.3183    0.6069    0.0017 C   0  0  0  0  0  0  0  0  0  0  0  0
   -0.6888    0.9694   -1.3533 C   0  0  0  0  0  0  0  0  0  0  0  0
    0.1217   -4.0905   -0.3942 C   0  0  0  0  0  0  0  0  0  0  0  0
    2.1987   -4.5295   -1.4180 C   0  0  0  0  0  0  0  0  0  0  0  0
    0.7721    1.4675    0.9306 C   0  0  0  0  0  0  0  0  0  0  0  0
   -1.2118    1.8382   -0.3880 C   0  0  0  0  0  0  0  0  0  0  0  0
    0.9002   -5.0588   -1.1109 O   0  0  0  0  0  0  0  0  0  0  0  0
    1.3736    1.8230    2.1216 O   0  0  0  0  0  0  0  0  0  0  0  0
   -0.4578    2.0687    0.7491 C   0  0  0  0  0  0  0  0  0  0  0  0
    0.4361    2.7003    2.6956 C   0  0  0  0  0  0  0  0  0  0  0  0
   -0.6774    2.8554    1.8683 N   0  0  0  0  0  0  0  0  0  0  0  0
    0.6462    3.2135    3.7862 O   0  0  0  0  0  0  0  0  0  0  0  0
   -1.8046    3.6258    2.0965 C   0  0  0  0  0  0  0  0  0  0  0  0
   -2.7693    3.6955    1.3391 O   0  0  0  0  0  0  0  0  0  0  0  0
   -1.7482    4.3146    3.2702 O   0  0  0  0  0  0  0  0  0  0  0  0
   -2.8897    5.1261    3.5507 C   0  0  0  0  0  0  0  0  0  0  0  0
   -0.6032   -3.0477   -2.1438 H   0  0  0  0  0  0  0  0  0  0  0  0
   -0.6529   -2.0976   -0.6329 H   0  0  0  0  0  0  0  0  0  0  0  0
    3.1026   -2.8815   -2.4649 H   0  0  0  0  0  0  0  0  0  0  0  0
    1.6130   -3.5016   -3.2323 H   0  0  0  0  0  0  0  0  0  0  0  0
    2.2900    0.1489    0.1573 H   0  0  0  0  0  0  0  0  0  0  0  0
   -1.2572    0.7767   -2.2623 H   0  0  0  0  0  0  0  0  0  0  0  0
    0.6100   -3.8767    0.5640 H   0  0  0  0  0  0  0  0  0  0  0  0
   -0.8525   -4.5414   -0.1806 H   0  0  0  0  0  0  0  0  0  0  0  0
    2.7517   -5.3026   -1.9603 H   0  0  0  0  0  0  0  0  0  0  0  0
    2.7326   -4.3294   -0.4814 H   0  0  0  0  0  0  0  0  0  0  0  0
   -2.1767    2.3093   -0.5494 H   0  0  0  0  0  0  0  0  0  0  0  0
   -3.0143    5.8919    2.7789 H   0  0  0  0  0  0  0  0  0  0  0  0
   -3.7884    4.5071    3.6336 H   0  0  0  0  0  0  0  0  0  0  0  0
   -2.7232    5.6248    4.5094 H   0  0  0  0  0  0  0  0  0  0  0  0
  1  2  2  0  0  0  0
  1  3  2  0  0  0  0
  1  4  1  0  0  0  0
  1  5  1  0  0  0  0
  4  6  1  0  0  0  0
  4  7  1  0  0  0  0
  5  8  2  0  0  0  0
  5  9  1  0  0  0  0
  6 10  1  0  0  0  0
  7 11  1  0  0  0  0
  8 12  1  0  0  0  0
  9 13  2  0  0  0  0
 10 14  1  0  0  0  0
 12 15  1  0  0  0  0
 12 16  2  0  0  0  0
 15 17  1  0  0  0  0
 16 18  1  0  0  0  0
 17 19  2  0  0  0  0
 18 20  1  0  0  0  0
 20 21  2  0  0  0  0
 20 22  1  0  0  0  0
 22 23  1  0  0  0  0
 11 14  1  0  0  0  0
 13 16  1  0  0  0  0
 17 18  1  0  0  0  0
  6 24  1  0  0  0  0
  6 25  1  0  0  0  0
  7 26  1  0  0  0  0
  7 27  1  0  0  0  0
  8 28  1  0  0  0  0
  9 29  1  0  0  0  0
 10 30  1  0  0  0  0
 10 31  1  0  0  0  0
 11 32  1  0  0  0  0
 11 33  1  0  0  0  0
 13 34  1  0  0  0  0
 23 35  1  0  0  0  0
 23 36  1  0  0  0  0
 23 37  1  0  0  0  0
M  END
>  <Column 1>
COC(=O)n1c(=O)oc2cc(S(=O)(=O)N3CCOCC3)ccc21 ZINC000000036863

>  <Total Molweight>
342.327

>  <cLogP>
0.7626

>  <cLogS>
-2.295

>  <H-Acceptors>
9

>  <H-Donors>
0

>  <Total Surface Area>
228.24

>  <MMFF94 Energy>
-19.189

$$$$
Compound 191
Actelion Java MolfileCreator 1.0

 36 37  0  0  0  0  0  0  0  0999 V2000
   -1.4869   -0.2477   -2.0656 S   0  0  0  0  0  0  0  0  0  0  0  0
   -2.6890   -1.0444   -1.9417 O   0  0  0  0  0  0  0  0  0  0  0  0
   -0.6896   -0.2766   -3.2735 O   0  0  0  0  0  0  0  0  0  0  0  0
   -1.8962    1.3666   -1.7506 N   0  0  0  0  0  0  0  0  0  0  0  0
   -0.4153   -0.6802   -0.7083 C   0  0  0  0  0  0  0  0  0  0  0  0
   -2.7617    1.6298   -0.5670 C   0  0  0  0  0  0  0  0  0  0  0  0
   -0.8088    2.3782   -1.8636 C   0  0  0  0  0  0  0  0  0  0  0  0
   -0.9585   -1.2440    0.4510 C   0  0  0  0  0  0  0  0  0  0  0  0
    0.9682   -0.5207   -0.8413 C   0  0  0  0  0  0  0  0  0  0  0  0
   -3.2920    3.0673   -0.6346 C   0  0  0  0  0  0  0  0  0  0  0  0
   -1.4217    3.7840   -1.8764 C   0  0  0  0  0  0  0  0  0  0  0  0
   -0.1133   -1.6067    1.5019 C   0  0  0  0  0  0  0  0  0  0  0  0
    1.8084   -0.8878    0.2119 C   0  0  0  0  0  0  0  0  0  0  0  0
   -2.2122    4.0128   -0.6988 O   0  0  0  0  0  0  0  0  0  0  0  0
    1.2648   -1.4113    1.3858 C   0  0  0  0  0  0  0  0  0  0  0  0
    2.1311   -1.8266    2.4386 N   0  0  0  0  0  0  0  0  0  0  0  0
    2.7347   -3.4100    2.3539 S   0  0  0  0  0  0  0  0  0  0  0  0
    2.8157   -3.8573    3.7285 O   0  0  0  0  0  0  0  0  0  0  0  0
    2.0183   -4.1681    1.3541 O   0  0  0  0  0  0  0  0  0  0  0  0
    4.3939   -3.1148    1.7844 C   0  0  0  0  0  0  0  0  0  0  0  0
   -2.1705    1.5039    0.3467 H   0  0  0  0  0  0  0  0  0  0  0  0
   -3.6098    0.9393   -0.5462 H   0  0  0  0  0  0  0  0  0  0  0  0
   -0.2379    2.2314   -2.7849 H   0  0  0  0  0  0  0  0  0  0  0  0
   -0.1375    2.2828   -1.0031 H   0  0  0  0  0  0  0  0  0  0  0  0
   -2.0289   -1.4194    0.5363 H   0  0  0  0  0  0  0  0  0  0  0  0
    1.3968   -0.1247   -1.7594 H   0  0  0  0  0  0  0  0  0  0  0  0
   -3.9454    3.2097   -1.5036 H   0  0  0  0  0  0  0  0  0  0  0  0
   -3.8754    3.2914    0.2641 H   0  0  0  0  0  0  0  0  0  0  0  0
   -0.6269    4.5363   -1.8930 H   0  0  0  0  0  0  0  0  0  0  0  0
   -2.0477    3.9369   -2.7636 H   0  0  0  0  0  0  0  0  0  0  0  0
   -0.5355   -2.0637    2.3932 H   0  0  0  0  0  0  0  0  0  0  0  0
    2.8819   -0.7596    0.1094 H   0  0  0  0  0  0  0  0  0  0  0  0
    1.7645   -1.6786    3.3819 H   0  0  0  0  0  0  0  0  0  0  0  0
    4.3587   -2.6983    0.7769 H   0  0  0  0  0  0  0  0  0  0  0  0
    4.8913   -2.4325    2.4763 H   0  0  0  0  0  0  0  0  0  0  0  0
    4.9181   -4.0729    1.7690 H   0  0  0  0  0  0  0  0  0  0  0  0
  1  2  2  0  0  0  0
  1  3  2  0  0  0  0
  1  4  1  0  0  0  0
  1  5  1  0  0  0  0
  4  6  1  0  0  0  0
  4  7  1  0  0  0  0
  5  8  2  0  0  0  0
  5  9  1  0  0  0  0
  6 10  1  0  0  0  0
  7 11  1  0  0  0  0
  8 12  1  0  0  0  0
  9 13  2  0  0  0  0
 10 14  1  0  0  0  0
 12 15  2  0  0  0  0
 15 16  1  0  0  0  0
 16 17  1  0  0  0  0
 17 18  2  0  0  0  0
 17 19  2  0  0  0  0
 17 20  1  0  0  0  0
 11 14  1  0  0  0  0
 13 15  1  0  0  0  0
  6 21  1  0  0  0  0
  6 22  1  0  0  0  0
  7 23  1  0  0  0  0
  7 24  1  0  0  0  0
  8 25  1  0  0  0  0
  9 26  1  0  0  0  0
 10 27  1  0  0  0  0
 10 28  1  0  0  0  0
 11 29  1  0  0  0  0
 11 30  1  0  0  0  0
 12 31  1  0  0  0  0
 13 32  1  0  0  0  0
 16 33  1  0  0  0  0
 20 34  1  0  0  0  0
 20 35  1  0  0  0  0
 20 36  1  0  0  0  0
M  END
>  <Column 1>
CS(=O)(=O)Nc1ccc(S(=O)(=O)N2CCOCC2)cc1 ZINC000000036971

>  <Total Molweight>
320.389

>  <cLogP>
-0.2489

>  <cLogS>
-1.909

>  <H-Acceptors>
7

>  <H-Donors>
1

>  <Total Surface Area>
215.98

>  <MMFF94 Energy>
-26.011

$$$$
Compound 192
Actelion Java MolfileCreator 1.0

 37 38  0  0  0  0  0  0  0  0999 V2000
   -2.4608    0.2379    2.5402 S   0  0  0  0  0  0  0  0  0  0  0  0
   -1.4611    0.6061    1.2604 C   0  0  0  0  0  0  0  0  0  0  0  0
   -1.3819    1.9106    0.8177 N   0  0  0  0  0  0  0  0  0  0  0  0
   -0.6714   -0.2583    0.5540 N   0  0  0  0  0  0  0  0  0  0  0  0
   -0.5453    2.2832   -0.2582 N   0  0  0  0  0  0  0  0  0  0  0  0
   -0.4577   -1.6853    0.7682 C   0  0  0  0  0  0  0  0  0  0  0  0
    0.4462    3.2898    0.1763 C   0  0  0  0  0  0  0  0  0  0  0  0
   -1.3450    2.8348   -1.3726 C   0  0  0  0  0  0  0  0  0  0  0  0
   -0.2028   -2.3828   -0.5733 C   0  0  0  0  0  0  0  0  0  0  0  0
    0.7129   -1.9116    1.7335 C   0  0  0  0  0  0  0  0  0  0  0  0
    1.3148    3.7404   -1.0055 C   0  0  0  0  0  0  0  0  0  0  0  0
   -0.4335    3.2964   -2.5173 C   0  0  0  0  0  0  0  0  0  0  0  0
    0.0959   -3.8680   -0.3883 C   0  0  0  0  0  0  0  0  0  0  0  0
    1.0130   -3.3972    1.9159 C   0  0  0  0  0  0  0  0  0  0  0  0
    0.5101    4.2766   -2.0643 O   0  0  0  0  0  0  0  0  0  0  0  0
    1.2546   -4.0915    0.5789 C   0  0  0  0  0  0  0  0  0  0  0  0
   -1.9498    2.6043    1.2995 H   0  0  0  0  0  0  0  0  0  0  0  0
   -0.1255    0.2221   -0.1545 H   0  0  0  0  0  0  0  0  0  0  0  0
   -1.3661   -2.1114    1.2098 H   0  0  0  0  0  0  0  0  0  0  0  0
   -0.0681    4.1627    0.5998 H   0  0  0  0  0  0  0  0  0  0  0  0
    1.0908    2.8660    0.9550 H   0  0  0  0  0  0  0  0  0  0  0  0
   -1.9406    3.6870   -1.0192 H   0  0  0  0  0  0  0  0  0  0  0  0
   -2.0360    2.0718   -1.7490 H   0  0  0  0  0  0  0  0  0  0  0  0
    0.6402   -1.9048   -1.0897 H   0  0  0  0  0  0  0  0  0  0  0  0
   -1.0747   -2.2626   -1.2279 H   0  0  0  0  0  0  0  0  0  0  0  0
    1.6097   -1.4032    1.3554 H   0  0  0  0  0  0  0  0  0  0  0  0
    0.4937   -1.4628    2.7096 H   0  0  0  0  0  0  0  0  0  0  0  0
    1.9189    2.9120   -1.3949 H   0  0  0  0  0  0  0  0  0  0  0  0
    2.0018    4.5286   -0.6813 H   0  0  0  0  0  0  0  0  0  0  0  0
    0.1077    2.4521   -2.9611 H   0  0  0  0  0  0  0  0  0  0  0  0
   -1.0350    3.7575   -3.3071 H   0  0  0  0  0  0  0  0  0  0  0  0
    0.3328   -4.3199   -1.3580 H   0  0  0  0  0  0  0  0  0  0  0  0
   -0.7996   -4.3757   -0.0092 H   0  0  0  0  0  0  0  0  0  0  0  0
    0.1720   -3.8781    2.4304 H   0  0  0  0  0  0  0  0  0  0  0  0
    1.8922   -3.5191    2.5584 H   0  0  0  0  0  0  0  0  0  0  0  0
    1.3974   -5.1656    0.7416 H   0  0  0  0  0  0  0  0  0  0  0  0
    2.1809   -3.7097    0.1323 H   0  0  0  0  0  0  0  0  0  0  0  0
  1  2  2  0  0  0  0
  2  3  1  0  0  0  0
  2  4  1  0  0  0  0
  3  5  1  0  0  0  0
  4  6  1  0  0  0  0
  5  7  1  0  0  0  0
  5  8  1  0  0  0  0
  6  9  1  0  0  0  0
  6 10  1  0  0  0  0
  7 11  1  0  0  0  0
  8 12  1  0  0  0  0
  9 13  1  0  0  0  0
 10 14  1  0  0  0  0
 11 15  1  0  0  0  0
 13 16  1  0  0  0  0
 12 15  1  0  0  0  0
 14 16  1  0  0  0  0
  3 17  1  0  0  0  0
  4 18  1  0  0  0  0
  6 19  1  0  0  0  0
  7 20  1  0  0  0  0
  7 21  1  0  0  0  0
  8 22  1  0  0  0  0
  8 23  1  0  0  0  0
  9 24  1  0  0  0  0
  9 25  1  0  0  0  0
 10 26  1  0  0  0  0
 10 27  1  0  0  0  0
 11 28  1  0  0  0  0
 11 29  1  0  0  0  0
 12 30  1  0  0  0  0
 12 31  1  0  0  0  0
 13 32  1  0  0  0  0
 13 33  1  0  0  0  0
 14 34  1  0  0  0  0
 14 35  1  0  0  0  0
 16 36  1  0  0  0  0
 16 37  1  0  0  0  0
M  END
>  <Column 1>
S=C(NC1CCCCC1)NN1CCOCC1 ZINC000000037285

>  <Total Molweight>
243.374

>  <cLogP>
0.1451

>  <cLogS>
-2.087

>  <H-Acceptors>
4

>  <H-Donors>
2

>  <Total Surface Area>
198.77

>  <MMFF94 Energy>
33.962

$$$$
Compound 193
Actelion Java MolfileCreator 1.0

 22 23  0  0  0  0  0  0  0  0999 V2000
    1.8694   -0.8125    0.1625 S   0  0  0  0  0  0  0  0  0  0  0  0
    0.1614   -0.7515    0.1822 C   0  0  0  0  0  0  0  0  0  0  0  0
    1.8812   -2.4757   -0.2353 C   0  0  0  0  0  0  0  0  0  0  0  0
   -0.3903   -1.9825   -0.1137 C   0  0  0  0  0  0  0  0  0  0  0  0
   -0.5478    0.4749    0.4735 C   0  0  0  0  0  0  0  0  0  0  0  0
    0.6024   -2.9774   -0.3538 C   0  0  0  0  0  0  0  0  0  0  0  0
    3.1790   -3.1882   -0.4049 C   0  0  0  0  0  0  0  0  0  0  0  0
    0.0621    1.5709    0.7861 N   0  0  0  0  0  0  0  0  0  0  0  0
   -0.7688    2.6267    0.9675 N   0  0  0  0  0  0  0  0  0  0  0  0
   -0.5999    3.4510    2.0161 N   0  0  0  0  0  0  0  0  0  0  0  0
   -1.8385    3.1074    0.2004 C   0  0  0  0  0  0  0  0  0  0  0  0
   -1.6015    4.3179    1.9610 N   0  0  0  0  0  0  0  0  0  0  0  0
   -2.3809    4.1125    0.8498 N   0  0  0  0  0  0  0  0  0  0  0  0
   -2.1963    2.6190   -1.0084 N   0  0  0  0  0  0  0  0  0  0  0  0
   -1.4566   -2.1715   -0.1542 H   0  0  0  0  0  0  0  0  0  0  0  0
   -1.6518    0.3996    0.4303 H   0  0  0  0  0  0  0  0  0  0  0  0
    0.3865   -4.0108   -0.5988 H   0  0  0  0  0  0  0  0  0  0  0  0
    3.0164   -4.2411   -0.6582 H   0  0  0  0  0  0  0  0  0  0  0  0
    3.7653   -3.1529    0.5191 H   0  0  0  0  0  0  0  0  0  0  0  0
    3.7674   -2.7372   -1.2106 H   0  0  0  0  0  0  0  0  0  0  0  0
   -2.9608    3.0631   -1.5090 H   0  0  0  0  0  0  0  0  0  0  0  0
   -1.6050    2.0057   -1.5581 H   0  0  0  0  0  0  0  0  0  0  0  0
  1  2  1  0  0  0  0
  1  3  1  0  0  0  0
  2  4  2  0  0  0  0
  2  5  1  0  0  0  0
  3  6  2  0  0  0  0
  3  7  1  0  0  0  0
  5  8  2  0  0  0  0
  8  9  1  0  0  0  0
  9 10  1  0  0  0  0
  9 11  1  0  0  0  0
 10 12  2  0  0  0  0
 11 13  2  0  0  0  0
 11 14  1  0  0  0  0
  4  6  1  0  0  0  0
 12 13  1  0  0  0  0
  4 15  1  0  0  0  0
  5 16  1  0  0  0  0
  6 17  1  0  0  0  0
  7 18  1  0  0  0  0
  7 19  1  0  0  0  0
  7 20  1  0  0  0  0
 14 21  1  0  0  0  0
 14 22  1  0  0  0  0
M  END
>  <Column 1>
Cc1ccc(/C=N/n2nnnc2N)s1 ZINC000000037734

>  <Total Molweight>
208.249

>  <cLogP>
1.5192

>  <cLogS>
-4.251

>  <H-Acceptors>
6

>  <H-Donors>
1

>  <Total Surface Area>
159.98

>  <MMFF94 Energy>
48.032

$$$$
Compound 194
Actelion Java MolfileCreator 1.0

 18 18  0  0  0  0  0  0  0  0999 V2000
   -1.0246    2.9972   -1.1034 F   0  0  0  0  0  0  0  0  0  0  0  0
   -0.6986    1.7896   -0.6193 C   0  0  0  0  0  0  0  0  0  0  0  0
    0.5221    1.3220   -0.9178 N   0  0  0  0  0  0  0  0  0  0  0  0
   -1.6249    1.1258    0.1376 C   0  0  0  0  0  0  0  0  0  0  0  0
    0.8066    0.1161   -0.4162 C   0  0  0  0  0  0  0  0  0  0  0  0
   -1.2180   -0.0977    0.5940 C   0  0  0  0  0  0  0  0  0  0  0  0
    2.0341   -0.4598   -0.6612 O   0  0  0  0  0  0  0  0  0  0  0  0
   -0.0134   -0.6279    0.3353 N   0  0  0  0  0  0  0  0  0  0  0  0
   -2.1300   -0.7952    1.3621 O   0  0  0  0  0  0  0  0  0  0  0  0
    2.8835    0.3519   -1.4610 C   0  0  0  0  0  0  0  0  0  0  0  0
   -1.6422   -2.0594    1.8038 C   0  0  0  0  0  0  0  0  0  0  0  0
   -2.5966    1.5411    0.3529 H   0  0  0  0  0  0  0  0  0  0  0  0
    3.8261   -0.1866   -1.5990 H   0  0  0  0  0  0  0  0  0  0  0  0
    2.4518    0.5237   -2.4532 H   0  0  0  0  0  0  0  0  0  0  0  0
    3.1138    1.3000   -0.9623 H   0  0  0  0  0  0  0  0  0  0  0  0
   -2.4303   -2.5305    2.3991 H   0  0  0  0  0  0  0  0  0  0  0  0
   -1.4255   -2.7187    0.9563 H   0  0  0  0  0  0  0  0  0  0  0  0
   -0.7635   -1.9423    2.4475 H   0  0  0  0  0  0  0  0  0  0  0  0
  1  2  1  0  0  0  0
  2  3  2  0  0  0  0
  2  4  1  0  0  0  0
  3  5  1  0  0  0  0
  4  6  2  0  0  0  0
  5  7  1  0  0  0  0
  5  8  2  0  0  0  0
  6  9  1  0  0  0  0
  7 10  1  0  0  0  0
  9 11  1  0  0  0  0
  6  8  1  0  0  0  0
  4 12  1  0  0  0  0
 10 13  1  0  0  0  0
 10 14  1  0  0  0  0
 10 15  1  0  0  0  0
 11 16  1  0  0  0  0
 11 17  1  0  0  0  0
 11 18  1  0  0  0  0
M  END
>  <Column 1>
COc1cc(F)nc(OC)n1 ZINC000000039053

>  <Total Molweight>
158.132

>  <cLogP>
1.1295

>  <cLogS>
-2.283

>  <H-Acceptors>
4

>  <H-Donors>
0

>  <Total Surface Area>
121.65

>  <MMFF94 Energy>
-86.234

$$$$
Compound 195
Actelion Java MolfileCreator 1.0

 29 30  0  0  0  0  0  0  0  0999 V2000
   -0.7791    1.7925    1.1688 N   0  0  0  0  0  0  0  0  0  0  0  0
   -0.8313    0.4678    1.2838 C   0  0  0  0  0  0  0  0  0  0  0  0
   -0.6175    2.2781   -0.0511 C   0  0  0  0  0  0  0  0  0  0  0  0
   -0.7343   -0.3467    0.2351 N   0  0  0  0  0  0  0  0  0  0  0  0
   -1.0000   -0.0874    2.5382 N   0  0  0  0  0  0  0  0  0  0  0  0
   -0.5096    1.5520   -1.1502 N   0  0  0  0  0  0  0  0  0  0  0  0
   -0.5576    3.6348   -0.1878 N   0  0  0  0  0  0  0  0  0  0  0  0
   -0.5702    0.2357   -0.9540 C   0  0  0  0  0  0  0  0  0  0  0  0
   -0.8192   -1.5147    2.6924 C   0  0  0  0  0  0  0  0  0  0  0  0
   -0.9016    0.7815    3.6917 C   0  0  0  0  0  0  0  0  0  0  0  0
   -0.4474   -0.6554   -2.1572 C   0  0  0  0  0  0  0  0  0  0  0  0
    0.9390   -0.9982   -2.4065 N   0  0  0  0  0  0  0  0  0  0  0  0
    1.8497   -0.2147   -3.0575 C   0  0  0  0  0  0  0  0  0  0  0  0
    1.5562   -2.1784   -2.0937 C   0  0  0  0  0  0  0  0  0  0  0  0
    3.0074   -0.8249   -3.1764 N   0  0  0  0  0  0  0  0  0  0  0  0
    2.8378   -2.0450   -2.5746 C   0  0  0  0  0  0  0  0  0  0  0  0
   -0.6181    4.1949    0.6447 H   0  0  0  0  0  0  0  0  0  0  0  0
   -0.4074    4.0198   -1.1033 H   0  0  0  0  0  0  0  0  0  0  0  0
   -1.4686   -2.0781    2.0126 H   0  0  0  0  0  0  0  0  0  0  0  0
    0.2226   -1.7989    2.5070 H   0  0  0  0  0  0  0  0  0  0  0  0
   -1.0752   -1.8376    3.7076 H   0  0  0  0  0  0  0  0  0  0  0  0
   -1.5979    1.6250    3.6208 H   0  0  0  0  0  0  0  0  0  0  0  0
    0.1173    1.1686    3.8039 H   0  0  0  0  0  0  0  0  0  0  0  0
   -1.1552    0.2446    4.6125 H   0  0  0  0  0  0  0  0  0  0  0  0
   -0.8379   -0.1597   -3.0530 H   0  0  0  0  0  0  0  0  0  0  0  0
   -1.0111   -1.5836   -2.0119 H   0  0  0  0  0  0  0  0  0  0  0  0
    1.6212    0.7806   -3.4184 H   0  0  0  0  0  0  0  0  0  0  0  0
    1.0574   -2.9820   -1.5702 H   0  0  0  0  0  0  0  0  0  0  0  0
    3.6463   -2.7625   -2.5217 H   0  0  0  0  0  0  0  0  0  0  0  0
  1  2  2  0  0  0  0
  1  3  1  0  0  0  0
  2  4  1  0  0  0  0
  2  5  1  0  0  0  0
  3  6  2  0  0  0  0
  3  7  1  0  0  0  0
  4  8  2  0  0  0  0
  5  9  1  0  0  0  0
  5 10  1  0  0  0  0
  8 11  1  0  0  0  0
 11 12  1  0  0  0  0
 12 13  1  0  0  0  0
 12 14  1  0  0  0  0
 13 15  2  0  0  0  0
 14 16  2  0  0  0  0
  6  8  1  0  0  0  0
 15 16  1  0  0  0  0
  7 17  1  0  0  0  0
  7 18  1  0  0  0  0
  9 19  1  0  0  0  0
  9 20  1  0  0  0  0
  9 21  1  0  0  0  0
 10 22  1  0  0  0  0
 10 23  1  0  0  0  0
 10 24  1  0  0  0  0
 11 25  1  0  0  0  0
 11 26  1  0  0  0  0
 13 27  1  0  0  0  0
 14 28  1  0  0  0  0
 16 29  1  0  0  0  0
M  END
>  <Column 1>
CN(C)c1nc(N)nc(Cn2ccnc2)n1 ZINC000000039075

>  <Total Molweight>
219.251

>  <cLogP>
-0.5292

>  <cLogS>
-0.195

>  <H-Acceptors>
7

>  <H-Donors>
1

>  <Total Surface Area>
174.36

>  <MMFF94 Energy>
-190.41

$$$$
Compound 196
Actelion Java MolfileCreator 1.0

 20 20  0  0  0  0  0  0  0  0999 V2000
   -0.3092   -1.0824    3.3274 F   0  0  0  0  0  0  0  0  0  0  0  0
   -0.2072   -0.6220    2.0711 C   0  0  0  0  0  0  0  0  0  0  0  0
   -0.0348   -1.5268    1.1016 N   0  0  0  0  0  0  0  0  0  0  0  0
   -0.2856    0.7300    1.8722 C   0  0  0  0  0  0  0  0  0  0  0  0
    0.0749   -1.0356   -0.1308 C   0  0  0  0  0  0  0  0  0  0  0  0
   -0.1826    1.1480    0.5708 C   0  0  0  0  0  0  0  0  0  0  0  0
    0.0131    0.2699   -0.4257 N   0  0  0  0  0  0  0  0  0  0  0  0
    0.2631   -1.8771   -1.1909 N   0  0  0  0  0  0  0  0  0  0  0  0
   -0.2131    2.5070    0.2952 N   0  0  0  0  0  0  0  0  0  0  0  0
    0.3593   -3.2968   -1.0210 C   0  0  0  0  0  0  0  0  0  0  0  0
    0.0112    2.9491   -1.0617 C   0  0  0  0  0  0  0  0  0  0  0  0
   -0.4134    1.4081    2.7015 H   0  0  0  0  0  0  0  0  0  0  0  0
    0.3445   -1.4332   -2.0911 H   0  0  0  0  0  0  0  0  0  0  0  0
   -0.7741    3.0973    0.8938 H   0  0  0  0  0  0  0  0  0  0  0  0
   -0.5577   -3.7092   -0.5869 H   0  0  0  0  0  0  0  0  0  0  0  0
    1.2092   -3.5652   -0.3847 H   0  0  0  0  0  0  0  0  0  0  0  0
    0.5094   -3.7747   -1.9941 H   0  0  0  0  0  0  0  0  0  0  0  0
   -0.7568    2.5615   -1.7393 H   0  0  0  0  0  0  0  0  0  0  0  0
    1.0001    2.6452   -1.4209 H   0  0  0  0  0  0  0  0  0  0  0  0
   -0.0323    4.0422   -1.0995 H   0  0  0  0  0  0  0  0  0  0  0  0
  1  2  1  0  0  0  0
  2  3  2  0  0  0  0
  2  4  1  0  0  0  0
  3  5  1  0  0  0  0
  4  6  2  0  0  0  0
  5  7  2  0  0  0  0
  5  8  1  0  0  0  0
  6  9  1  0  0  0  0
  8 10  1  0  0  0  0
  9 11  1  0  0  0  0
  6  7  1  0  0  0  0
  4 12  1  0  0  0  0
  8 13  1  0  0  0  0
  9 14  1  0  0  0  0
 10 15  1  0  0  0  0
 10 16  1  0  0  0  0
 10 17  1  0  0  0  0
 11 18  1  0  0  0  0
 11 19  1  0  0  0  0
 11 20  1  0  0  0  0
M  END
>  <Column 1>
CNc1cc(F)nc(NC)n1 ZINC000000039518

>  <Total Molweight>
156.163

>  <cLogP>
0.5635

>  <cLogS>
-2.367

>  <H-Acceptors>
4

>  <H-Donors>
2

>  <Total Surface Area>
124.57

>  <MMFF94 Energy>
-147.23

$$$$
Compound 197
Actelion Java MolfileCreator 1.0

 20 20  0  0  0  0  0  0  0  0999 V2000
   -0.2348    3.7621   -1.9581 O   0  0  0  0  0  0  0  0  0  0  0  0
    0.3670    2.6948   -2.1358 N   0  0  0  0  0  0  0  0  0  0  0  0
    1.0793    2.4239   -3.1153 O   0  0  0  0  0  0  0  0  0  0  0  0
    0.2392    1.6676   -1.1262 C   0  0  0  0  0  0  0  0  0  0  0  0
   -0.5258    1.8573    0.0055 N   0  0  0  0  0  0  0  0  0  0  0  0
    0.8181    0.4170   -1.1223 C   0  0  0  0  0  0  0  0  0  0  0  0
   -0.4204    0.7384    0.6975 C   0  0  0  0  0  0  0  0  0  0  0  0
    0.3871   -0.1650    0.0406 N   0  0  0  0  0  0  0  0  0  0  0  0
   -1.0746    0.4717    2.0045 C   0  0  0  0  0  0  0  0  0  0  0  0
    0.7510   -1.4975    0.4851 C   0  0  0  0  0  0  0  0  0  0  0  0
   -0.2157   -2.5558   -0.0161 C   0  0  0  0  0  0  0  0  0  0  0  0
    1.4709   -0.0806   -1.8263 H   0  0  0  0  0  0  0  0  0  0  0  0
   -1.6904   -0.4311    1.9570 H   0  0  0  0  0  0  0  0  0  0  0  0
   -1.7242    1.3074    2.2835 H   0  0  0  0  0  0  0  0  0  0  0  0
   -0.3259    0.3491    2.7928 H   0  0  0  0  0  0  0  0  0  0  0  0
    0.7938   -1.4955    1.5788 H   0  0  0  0  0  0  0  0  0  0  0  0
    1.7633   -1.7024    0.1189 H   0  0  0  0  0  0  0  0  0  0  0  0
   -0.2473   -2.5746   -1.1106 H   0  0  0  0  0  0  0  0  0  0  0  0
   -1.2327   -2.3672    0.3429 H   0  0  0  0  0  0  0  0  0  0  0  0
    0.0914   -3.5462    0.3333 H   0  0  0  0  0  0  0  0  0  0  0  0
  1  2  2  0  0  0  0
  2  3  1  0  0  0  0
  2  4  1  0  0  0  0
  4  5  1  0  0  0  0
  4  6  2  0  0  0  0
  5  7  2  0  0  0  0
  6  8  1  0  0  0  0
  7  9  1  0  0  0  0
  8 10  1  0  0  0  0
 10 11  1  0  0  0  0
  7  8  1  0  0  0  0
  6 12  1  0  0  0  0
  9 13  1  0  0  0  0
  9 14  1  0  0  0  0
  9 15  1  0  0  0  0
 10 16  1  0  0  0  0
 10 17  1  0  0  0  0
 11 18  1  0  0  0  0
 11 19  1  0  0  0  0
 11 20  1  0  0  0  0
M  CHG  2   2   1   3  -1
M  END
>  <Column 1>
CCn1cc([N+](=O)[O-])nc1C ZINC000000039522

>  <Total Molweight>
155.156

>  <cLogP>
-0.1282

>  <cLogS>
-0.712

>  <H-Acceptors>
4

>  <H-Donors>
0

>  <Total Surface Area>
123.17

>  <MMFF94 Energy>
74.706

$$$$
Compound 198
Actelion Java MolfileCreator 1.0

 23 23  0  0  0  0  0  0  0  0999 V2000
    1.7795   -1.3150    2.2441 O   0  0  0  0  0  0  0  0  0  0  0  0
    0.9725   -0.8491    1.2226 C   0  0  0  0  0  0  0  0  0  0  0  0
    2.2840   -0.2767    3.0780 C   0  0  0  0  0  0  0  0  0  0  0  0
    0.7385    0.4687    1.1000 N   0  0  0  0  0  0  0  0  0  0  0  0
    0.4550   -1.7985    0.3846 C   0  0  0  0  0  0  0  0  0  0  0  0
   -0.0507    0.8465    0.0896 C   0  0  0  0  0  0  0  0  0  0  0  0
   -0.3384   -1.3055   -0.6147 C   0  0  0  0  0  0  0  0  0  0  0  0
   -0.6061   -0.0001   -0.7846 N   0  0  0  0  0  0  0  0  0  0  0  0
   -0.2774    2.1895   -0.0195 N   0  0  0  0  0  0  0  0  0  0  0  0
   -0.8779   -2.2390   -1.4802 O   0  0  0  0  0  0  0  0  0  0  0  0
   -1.1037    2.7345   -1.0554 C   0  0  0  0  0  0  0  0  0  0  0  0
   -1.6918   -1.6578   -2.4941 C   0  0  0  0  0  0  0  0  0  0  0  0
    1.4714    0.2573    3.5827 H   0  0  0  0  0  0  0  0  0  0  0  0
    2.9056   -0.7415    3.8494 H   0  0  0  0  0  0  0  0  0  0  0  0
    2.9179    0.4144    2.5116 H   0  0  0  0  0  0  0  0  0  0  0  0
    0.6567   -2.8518    0.5024 H   0  0  0  0  0  0  0  0  0  0  0  0
    0.1720    2.7669    0.6724 H   0  0  0  0  0  0  0  0  0  0  0  0
   -2.1282    2.3528   -0.9902 H   0  0  0  0  0  0  0  0  0  0  0  0
   -0.6998    2.5080   -2.0478 H   0  0  0  0  0  0  0  0  0  0  0  0
   -1.1487    3.8236   -0.9563 H   0  0  0  0  0  0  0  0  0  0  0  0
   -2.0698   -2.4693   -3.1235 H   0  0  0  0  0  0  0  0  0  0  0  0
   -2.5563   -1.1416   -2.0619 H   0  0  0  0  0  0  0  0  0  0  0  0
   -1.1098   -0.9845   -3.1329 H   0  0  0  0  0  0  0  0  0  0  0  0
  1  2  1  0  0  0  0
  1  3  1  0  0  0  0
  2  4  2  0  0  0  0
  2  5  1  0  0  0  0
  4  6  1  0  0  0  0
  5  7  2  0  0  0  0
  6  8  2  0  0  0  0
  6  9  1  0  0  0  0
  7 10  1  0  0  0  0
  9 11  1  0  0  0  0
 10 12  1  0  0  0  0
  7  8  1  0  0  0  0
  3 13  1  0  0  0  0
  3 14  1  0  0  0  0
  3 15  1  0  0  0  0
  5 16  1  0  0  0  0
  9 17  1  0  0  0  0
 11 18  1  0  0  0  0
 11 19  1  0  0  0  0
 11 20  1  0  0  0  0
 12 21  1  0  0  0  0
 12 22  1  0  0  0  0
 12 23  1  0  0  0  0
M  END
>  <Column 1>
CNc1nc(OC)cc(OC)n1 ZINC000000039613

>  <Total Molweight>
169.183

>  <cLogP>
0.6757

>  <cLogS>
-2.029

>  <H-Acceptors>
5

>  <H-Donors>
1

>  <Total Surface Area>
139.02

>  <MMFF94 Energy>
-127.49

$$$$
Compound 199
Actelion Java MolfileCreator 1.0

 22 24  0  0  0  0  0  0  0  0999 V2000
    3.3370   -2.6852   -2.0337 N   0  0  0  0  0  0  0  0  0  0  0  0
    2.0658   -2.6567   -1.6602 N   0  0  0  0  0  0  0  0  0  0  0  0
    3.9660   -1.5083   -1.7284 N   0  0  0  0  0  0  0  0  0  0  0  0
    1.8666   -1.4398   -1.1027 N   0  0  0  0  0  0  0  0  0  0  0  0
    3.0540   -0.7543   -1.1584 C   0  0  0  0  0  0  0  0  0  0  0  0
    0.6120   -1.0389   -0.5805 C   0  0  0  0  0  0  0  0  0  0  0  0
    0.4379    0.2304   -0.0085 C   0  0  0  0  0  0  0  0  0  0  0  0
   -0.4727   -1.9259   -0.6368 C   0  0  0  0  0  0  0  0  0  0  0  0
   -0.8182    0.6078    0.5044 C   0  0  0  0  0  0  0  0  0  0  0  0
   -1.7164   -1.5490   -0.1277 C   0  0  0  0  0  0  0  0  0  0  0  0
   -0.9765    1.8933    1.0785 N   0  0  0  0  0  0  0  0  0  0  0  0
   -1.8942   -0.2871    0.4423 C   0  0  0  0  0  0  0  0  0  0  0  0
    0.0411    2.7821    1.1547 N   0  0  0  0  0  0  0  0  0  0  0  0
   -2.0863    2.4769    1.6347 C   0  0  0  0  0  0  0  0  0  0  0  0
   -0.4586    3.8606    1.7408 N   0  0  0  0  0  0  0  0  0  0  0  0
   -1.7819    3.6864    2.0458 N   0  0  0  0  0  0  0  0  0  0  0  0
    3.2037    0.2474   -0.7888 H   0  0  0  0  0  0  0  0  0  0  0  0
    1.2652    0.9347    0.0459 H   0  0  0  0  0  0  0  0  0  0  0  0
   -0.3704   -2.9186   -1.0745 H   0  0  0  0  0  0  0  0  0  0  0  0
   -2.5509   -2.2464   -0.1772 H   0  0  0  0  0  0  0  0  0  0  0  0
   -2.8815   -0.0420    0.8242 H   0  0  0  0  0  0  0  0  0  0  0  0
   -3.0525    2.0062    1.7160 H   0  0  0  0  0  0  0  0  0  0  0  0
  1  2  2  0  0  0  0
  1  3  1  0  0  0  0
  2  4  1  0  0  0  0
  3  5  2  0  0  0  0
  4  6  1  0  0  0  0
  6  7  2  0  0  0  0
  6  8  1  0  0  0  0
  7  9  1  0  0  0  0
  8 10  2  0  0  0  0
  9 11  1  0  0  0  0
  9 12  2  0  0  0  0
 11 13  1  0  0  0  0
 11 14  1  0  0  0  0
 13 15  2  0  0  0  0
 14 16  2  0  0  0  0
  4  5  1  0  0  0  0
 10 12  1  0  0  0  0
 15 16  1  0  0  0  0
  5 17  1  0  0  0  0
  7 18  1  0  0  0  0
  8 19  1  0  0  0  0
 10 20  1  0  0  0  0
 12 21  1  0  0  0  0
 14 22  1  0  0  0  0
M  END
>  <Column 1>
c1cc(-n2cnnn2)cc(-n2cnnn2)c1 ZINC000000039654

>  <Total Molweight>
214.192

>  <cLogP>
-0.5432

>  <cLogS>
-2.214

>  <H-Acceptors>
8

>  <H-Donors>
0

>  <Total Surface Area>
163.74

>  <MMFF94 Energy>
53.15

$$$$
Compound 200
Actelion Java MolfileCreator 1.0

 23 24  0  0  0  0  0  0  0  0999 V2000
    0.8709    0.3958   -2.2180 O   0  0  0  0  0  0  0  0  0  0  0  0
    0.5691   -0.7641   -1.5658 C   0  0  0  0  0  0  0  0  0  0  0  0
    0.0705   -0.7513   -0.2566 C   0  0  0  0  0  0  0  0  0  0  0  0
    0.7670   -1.9773   -2.2308 C   0  0  0  0  0  0  0  0  0  0  0  0
   -0.2263   -1.9709    0.3752 C   0  0  0  0  0  0  0  0  0  0  0  0
   -0.1772    0.4783    0.5406 C   0  0  0  0  0  0  0  0  0  0  0  0
    0.4672   -3.1739   -1.5883 C   0  0  0  0  0  0  0  0  0  0  0  0
   -0.0283   -3.1837   -0.2899 C   0  0  0  0  0  0  0  0  0  0  0  0
    0.0440    1.6733    0.1038 N   0  0  0  0  0  0  0  0  0  0  0  0
    0.6767   -4.3318   -2.2769 O   0  0  0  0  0  0  0  0  0  0  0  0
   -0.2636    2.6659    1.0297 C   0  0  0  0  0  0  0  0  0  0  0  0
   -0.0717    3.9402    0.6789 N   0  0  0  0  0  0  0  0  0  0  0  0
   -0.7555    2.4931    2.2994 N   0  0  0  0  0  0  0  0  0  0  0  0
   -0.4623    4.5882    1.7814 N   0  0  0  0  0  0  0  0  0  0  0  0
   -0.8687    3.7220    2.7438 C   0  0  0  0  0  0  0  0  0  0  0  0
    1.2016    0.2038   -3.1087 H   0  0  0  0  0  0  0  0  0  0  0  0
    1.1524   -2.0070   -3.2451 H   0  0  0  0  0  0  0  0  0  0  0  0
   -0.6145   -1.9877    1.3913 H   0  0  0  0  0  0  0  0  0  0  0  0
   -0.5731    0.2880    1.5563 H   0  0  0  0  0  0  0  0  0  0  0  0
   -0.2644   -4.1139    0.2175 H   0  0  0  0  0  0  0  0  0  0  0  0
    0.4274   -5.0829   -1.7134 H   0  0  0  0  0  0  0  0  0  0  0  0
   -0.4233    5.6006    1.8007 H   0  0  0  0  0  0  0  0  0  0  0  0
   -1.2247    4.0327    3.7151 H   0  0  0  0  0  0  0  0  0  0  0  0
  1  2  1  0  0  0  0
  2  3  2  0  0  0  0
  2  4  1  0  0  0  0
  3  5  1  0  0  0  0
  3  6  1  0  0  0  0
  4  7  2  0  0  0  0
  5  8  2  0  0  0  0
  6  9  2  0  0  0  0
  7 10  1  0  0  0  0
  9 11  1  0  0  0  0
 11 12  2  0  0  0  0
 11 13  1  0  0  0  0
 12 14  1  0  0  0  0
 13 15  2  0  0  0  0
  7  8  1  0  0  0  0
 14 15  1  0  0  0  0
  1 16  1  0  0  0  0
  4 17  1  0  0  0  0
  5 18  1  0  0  0  0
  6 19  1  0  0  0  0
  8 20  1  0  0  0  0
 10 21  1  0  0  0  0
 14 22  1  0  0  0  0
 15 23  1  0  0  0  0
M  END
>  <Column 1>
Oc1ccc(C=Nc2nc[nH]n2)c(O)c1 ZINC000000039805

>  <Total Molweight>
204.189

>  <cLogP>
0.4814

>  <cLogS>
-1.787

>  <H-Acceptors>
6

>  <H-Donors>
3

>  <Total Surface Area>
157.57

>  <MMFF94 Energy>
-10.793

$$$$
