MODEL 1
REMARK VINA RESULT:      -4.3      0.000      0.000
REMARK  8 active torsions:
REMARK  status: ('A' for Active; 'I' for Inactive)
REMARK    1  A    between atoms: C_1235  and  CA_1237 
REMARK    2  A    between atoms: CA_1237  and  CB_1239 
REMARK    3  A    between atoms: CB_1239  and  CG_1240 
REMARK    4  A    between atoms: CG_1240  and  SD_1241 
REMARK    5  A    between atoms: SD_1241  and  C5_1242 
REMARK    6  A    between atoms: C5_1242  and  C4_1243 
REMARK    7  A    between atoms: C4_1243  and  C3_1245 
REMARK    8  A    between atoms: C3_1245  and  C2_1247 
REMARK       I    between atoms: C2_1247  and  N1_1249 
ROOT
HETATM    1  C5  H1D A4398     -23.847  30.312 -17.318  1.00 21.03     0.094 C 
ENDROOT
BRANCH   1   2
HETATM    2  C4  H1D A4398     -24.160  29.486 -18.566  1.00 21.36     0.202 C 
HETATM    3  O4  H1D A4398     -23.454  28.245 -18.475  1.00 22.40    -0.219 OA
BRANCH   2   4
HETATM    4  C3  H1D A4398     -25.657  29.196 -18.705  1.00 21.38     0.265 C 
HETATM    5  O3  H1D A4398     -26.348  29.637 -17.533  1.00 19.75    -0.210 OA
BRANCH   4   6
HETATM    6  C2  H1D A4398     -26.190  29.967 -19.914  1.00 22.11     0.314 C 
HETATM    7  N1  H1D A4398     -25.619  29.662 -21.075  1.00 24.38    -0.056 NA
HETATM    8  O1  H1D A4398     -26.011  30.289 -22.217  1.00 24.98    -0.058 OA
HETATM    9  O2  H1D A4398     -27.074  30.812 -19.781  1.00 22.59    -0.265 OA
ENDBRANCH   4   6
ENDBRANCH   2   4
ENDBRANCH   1   2
BRANCH   1  10
HETATM   10  SD  H1D A4398     -22.366  31.363 -17.547  1.00 21.31    -0.137 SA
BRANCH  10  11
HETATM   11  CG  H1D A4398     -22.638  32.609 -16.234  1.00 23.39     0.060 C 
BRANCH  11  12
HETATM   12  CB  H1D A4398     -23.452  33.817 -16.705  1.00 24.93     0.062 C 
BRANCH  12  13
HETATM   13  CA  H1D A4398     -24.766  33.976 -15.937  1.00 23.34     0.388 C 
HETATM   14  N   H1D A4398     -24.956  32.844 -15.019  1.00 22.37     0.628 N 
BRANCH  13  15
HETATM   15  C   H1D A4398     -25.952  34.059 -16.903  1.00 23.96     0.224 C 
HETATM   16  OXT H1D A4398     -26.046  33.161 -17.766  1.00 20.34    -0.646 OA
HETATM   17  O   H1D A4398     -26.737  35.021 -16.753  1.00 24.70    -0.646 OA
ENDBRANCH  13  15
ENDBRANCH  12  13
ENDBRANCH  11  12
ENDBRANCH  10  11
ENDBRANCH   1  10
TORSDOF 8
ENDMDL
MODEL 2
REMARK VINA RESULT:      -4.2      2.070      2.786
REMARK  8 active torsions:
REMARK  status: ('A' for Active; 'I' for Inactive)
REMARK    1  A    between atoms: C_1235  and  CA_1237 
REMARK    2  A    between atoms: CA_1237  and  CB_1239 
REMARK    3  A    between atoms: CB_1239  and  CG_1240 
REMARK    4  A    between atoms: CG_1240  and  SD_1241 
REMARK    5  A    between atoms: SD_1241  and  C5_1242 
REMARK    6  A    between atoms: C5_1242  and  C4_1243 
REMARK    7  A    between atoms: C4_1243  and  C3_1245 
REMARK    8  A    between atoms: C3_1245  and  C2_1247 
REMARK       I    between atoms: C2_1247  and  N1_1249 
ROOT
HETATM    1  C5  H1D A4398     -25.379  31.919 -20.152  1.00 21.03     0.094 C 
ENDROOT
BRANCH   1   2
HETATM    2  C4  H1D A4398     -26.130  30.588 -20.110  1.00 21.36     0.202 C 
HETATM    3  O4  H1D A4398     -25.917  29.909 -21.351  1.00 22.40    -0.219 OA
BRANCH   2   4
HETATM    4  C3  H1D A4398     -25.651  29.691 -18.965  1.00 21.38     0.265 C 
HETATM    5  O3  H1D A4398     -26.148  30.187 -17.720  1.00 19.75    -0.210 OA
BRANCH   4   6
HETATM    6  C2  H1D A4398     -26.200  28.282 -19.191  1.00 22.11     0.314 C 
HETATM    7  N1  H1D A4398     -27.523  28.171 -19.108  1.00 24.38    -0.056 NA
HETATM    8  O1  H1D A4398     -28.121  26.963 -19.287  1.00 24.98    -0.058 OA
HETATM    9  O2  H1D A4398     -25.442  27.339 -19.417  1.00 22.59    -0.265 OA
ENDBRANCH   4   6
ENDBRANCH   2   4
ENDBRANCH   1   2
BRANCH   1  10
HETATM   10  SD  H1D A4398     -23.572  31.682 -20.320  1.00 21.31    -0.137 SA
BRANCH  10  11
HETATM   11  CG  H1D A4398     -22.961  32.956 -19.158  1.00 23.39     0.060 C 
BRANCH  11  12
HETATM   12  CB  H1D A4398     -24.008  34.023 -18.824  1.00 24.93     0.062 C 
BRANCH  12  13
HETATM   13  CA  H1D A4398     -24.102  34.305 -17.322  1.00 23.34     0.388 C 
HETATM   14  N   H1D A4398     -22.917  33.773 -16.633  1.00 22.37     0.628 N 
BRANCH  13  15
HETATM   15  C   H1D A4398     -25.367  33.676 -16.731  1.00 23.96     0.224 C 
HETATM   16  OXT H1D A4398     -26.434  33.850 -17.356  1.00 20.34    -0.646 OA
HETATM   17  O   H1D A4398     -25.234  33.034 -15.666  1.00 24.70    -0.646 OA
ENDBRANCH  13  15
ENDBRANCH  12  13
ENDBRANCH  11  12
ENDBRANCH  10  11
ENDBRANCH   1  10
TORSDOF 8
ENDMDL
MODEL 3
REMARK VINA RESULT:      -4.2      1.865      2.370
REMARK  8 active torsions:
REMARK  status: ('A' for Active; 'I' for Inactive)
REMARK    1  A    between atoms: C_1235  and  CA_1237 
REMARK    2  A    between atoms: CA_1237  and  CB_1239 
REMARK    3  A    between atoms: CB_1239  and  CG_1240 
REMARK    4  A    between atoms: CG_1240  and  SD_1241 
REMARK    5  A    between atoms: SD_1241  and  C5_1242 
REMARK    6  A    between atoms: C5_1242  and  C4_1243 
REMARK    7  A    between atoms: C4_1243  and  C3_1245 
REMARK    8  A    between atoms: C3_1245  and  C2_1247 
REMARK       I    between atoms: C2_1247  and  N1_1249 
ROOT
HETATM    1  C5  H1D A4398     -24.069  31.245 -17.106  1.00 21.03     0.094 C 
ENDROOT
BRANCH   1   2
HETATM    2  C4  H1D A4398     -25.244  30.376 -17.556  1.00 21.36     0.202 C 
HETATM    3  O4  H1D A4398     -26.178  31.205 -18.255  1.00 22.40    -0.219 OA
BRANCH   2   4
HETATM    4  C3  H1D A4398     -24.801  29.240 -18.481  1.00 21.38     0.265 C 
HETATM    5  O3  H1D A4398     -24.298  28.150 -17.704  1.00 19.75    -0.210 OA
BRANCH   4   6
HETATM    6  C2  H1D A4398     -26.017  28.760 -19.276  1.00 22.11     0.314 C 
HETATM    7  N1  H1D A4398     -26.905  28.057 -18.580  1.00 24.38    -0.056 NA
HETATM    8  O1  H1D A4398     -28.024  27.576 -19.187  1.00 24.98    -0.058 OA
HETATM    9  O2  H1D A4398     -26.124  29.013 -20.475  1.00 22.59    -0.265 OA
ENDBRANCH   4   6
ENDBRANCH   2   4
ENDBRANCH   1   2
BRANCH   1  10
HETATM   10  SD  H1D A4398     -22.838  31.476 -18.441  1.00 21.31    -0.137 SA
BRANCH  10  11
HETATM   11  CG  H1D A4398     -22.710  33.302 -18.460  1.00 23.39     0.060 C 
BRANCH  11  12
HETATM   12  CB  H1D A4398     -24.054  34.001 -18.684  1.00 24.93     0.062 C 
BRANCH  12  13
HETATM   13  CA  H1D A4398     -24.415  34.958 -17.545  1.00 23.34     0.388 C 
HETATM   14  N   H1D A4398     -23.340  34.981 -16.543  1.00 22.37     0.628 N 
BRANCH  13  15
HETATM   15  C   H1D A4398     -25.729  34.537 -16.880  1.00 23.96     0.224 C 
HETATM   16  OXT H1D A4398     -25.667  34.143 -15.697  1.00 20.34    -0.646 OA
HETATM   17  O   H1D A4398     -26.766  34.620 -17.575  1.00 24.70    -0.646 OA
ENDBRANCH  13  15
ENDBRANCH  12  13
ENDBRANCH  11  12
ENDBRANCH  10  11
ENDBRANCH   1  10
TORSDOF 8
ENDMDL
MODEL 4
REMARK VINA RESULT:      -4.1      3.270      4.401
REMARK  8 active torsions:
REMARK  status: ('A' for Active; 'I' for Inactive)
REMARK    1  A    between atoms: C_1235  and  CA_1237 
REMARK    2  A    between atoms: CA_1237  and  CB_1239 
REMARK    3  A    between atoms: CB_1239  and  CG_1240 
REMARK    4  A    between atoms: CG_1240  and  SD_1241 
REMARK    5  A    between atoms: SD_1241  and  C5_1242 
REMARK    6  A    between atoms: C5_1242  and  C4_1243 
REMARK    7  A    between atoms: C4_1243  and  C3_1245 
REMARK    8  A    between atoms: C3_1245  and  C2_1247 
REMARK       I    between atoms: C2_1247  and  N1_1249 
ROOT
HETATM    1  C5  H1D A4398     -24.255  33.609 -18.112  1.00 21.03     0.094 C 
ENDROOT
BRANCH   1   2
HETATM    2  C4  H1D A4398     -25.576  32.846 -18.203  1.00 21.36     0.202 C 
HETATM    3  O4  H1D A4398     -26.645  33.760 -17.942  1.00 22.40    -0.219 OA
BRANCH   2   4
HETATM    4  C3  H1D A4398     -25.786  32.219 -19.584  1.00 21.38     0.265 C 
HETATM    5  O3  H1D A4398     -24.566  32.262 -20.327  1.00 19.75    -0.210 OA
BRANCH   4   6
HETATM    6  C2  H1D A4398     -26.199  30.758 -19.396  1.00 22.11     0.314 C 
HETATM    7  N1  H1D A4398     -26.286  30.355 -18.132  1.00 24.38    -0.056 NA
HETATM    8  O1  H1D A4398     -26.641  29.073 -17.845  1.00 24.98    -0.058 OA
HETATM    9  O2  H1D A4398     -26.414  30.035 -20.367  1.00 22.59    -0.265 OA
ENDBRANCH   4   6
ENDBRANCH   2   4
ENDBRANCH   1   2
BRANCH   1  10
HETATM   10  SD  H1D A4398     -23.742  33.885 -16.376  1.00 21.31    -0.137 SA
BRANCH  10  11
HETATM   11  CG  H1D A4398     -23.593  32.156 -15.796  1.00 23.39     0.060 C 
BRANCH  11  12
HETATM   12  CB  H1D A4398     -22.491  31.961 -14.751  1.00 24.93     0.062 C 
BRANCH  12  13
HETATM   13  CA  H1D A4398     -21.088  32.009 -15.362  1.00 23.34     0.388 C 
HETATM   14  N   H1D A4398     -20.416  30.713 -15.191  1.00 22.37     0.628 N 
BRANCH  13  15
HETATM   15  C   H1D A4398     -20.251  33.112 -14.707  1.00 23.96     0.224 C 
HETATM   16  OXT H1D A4398     -19.469  32.769 -13.795  1.00 20.34    -0.646 OA
HETATM   17  O   H1D A4398     -20.414  34.276 -15.137  1.00 24.70    -0.646 OA
ENDBRANCH  13  15
ENDBRANCH  12  13
ENDBRANCH  11  12
ENDBRANCH  10  11
ENDBRANCH   1  10
TORSDOF 8
ENDMDL
MODEL 5
REMARK VINA RESULT:      -4.1      2.638      4.436
REMARK  8 active torsions:
REMARK  status: ('A' for Active; 'I' for Inactive)
REMARK    1  A    between atoms: C_1235  and  CA_1237 
REMARK    2  A    between atoms: CA_1237  and  CB_1239 
REMARK    3  A    between atoms: CB_1239  and  CG_1240 
REMARK    4  A    between atoms: CG_1240  and  SD_1241 
REMARK    5  A    between atoms: SD_1241  and  C5_1242 
REMARK    6  A    between atoms: C5_1242  and  C4_1243 
REMARK    7  A    between atoms: C4_1243  and  C3_1245 
REMARK    8  A    between atoms: C3_1245  and  C2_1247 
REMARK       I    between atoms: C2_1247  and  N1_1249 
ROOT
HETATM    1  C5  H1D A4398     -23.872  33.452 -18.198  1.00 21.03     0.094 C 
ENDROOT
BRANCH   1   2
HETATM    2  C4  H1D A4398     -25.150  32.645 -17.971  1.00 21.36     0.202 C 
HETATM    3  O4  H1D A4398     -26.219  33.557 -17.700  1.00 22.40    -0.219 OA
BRANCH   2   4
HETATM    4  C3  H1D A4398     -25.520  31.796 -19.190  1.00 21.38     0.265 C 
HETATM    5  O3  H1D A4398     -24.348  31.516 -19.960  1.00 19.75    -0.210 OA
BRANCH   4   6
HETATM    6  C2  H1D A4398     -26.115  30.475 -18.698  1.00 22.11     0.314 C 
HETATM    7  N1  H1D A4398     -26.690  29.731 -19.638  1.00 24.38    -0.056 NA
HETATM    8  O1  H1D A4398     -27.257  28.537 -19.314  1.00 24.98    -0.058 OA
HETATM    9  O2  H1D A4398     -26.059  30.163 -17.510  1.00 22.59    -0.265 OA
ENDBRANCH   4   6
ENDBRANCH   2   4
ENDBRANCH   1   2
BRANCH   1  10
HETATM   10  SD  H1D A4398     -22.931  33.696 -16.646  1.00 21.31    -0.137 SA
BRANCH  10  11
HETATM   11  CG  H1D A4398     -23.621  32.343 -15.625  1.00 23.39     0.060 C 
BRANCH  11  12
HETATM   12  CB  H1D A4398     -22.583  31.285 -15.240  1.00 24.93     0.062 C 
BRANCH  12  13
HETATM   13  CA  H1D A4398     -21.762  30.804 -16.439  1.00 23.34     0.388 C 
HETATM   14  N   H1D A4398     -22.591  29.964 -17.316  1.00 22.37     0.628 N 
BRANCH  13  15
HETATM   15  C   H1D A4398     -20.538  30.010 -15.973  1.00 23.96     0.224 C 
HETATM   16  OXT H1D A4398     -20.619  29.437 -14.866  1.00 20.34    -0.646 OA
HETATM   17  O   H1D A4398     -19.549  29.996 -16.738  1.00 24.70    -0.646 OA
ENDBRANCH  13  15
ENDBRANCH  12  13
ENDBRANCH  11  12
ENDBRANCH  10  11
ENDBRANCH   1  10
TORSDOF 8
ENDMDL
MODEL 6
REMARK VINA RESULT:      -4.0      2.411      3.383
REMARK  8 active torsions:
REMARK  status: ('A' for Active; 'I' for Inactive)
REMARK    1  A    between atoms: C_1235  and  CA_1237 
REMARK    2  A    between atoms: CA_1237  and  CB_1239 
REMARK    3  A    between atoms: CB_1239  and  CG_1240 
REMARK    4  A    between atoms: CG_1240  and  SD_1241 
REMARK    5  A    between atoms: SD_1241  and  C5_1242 
REMARK    6  A    between atoms: C5_1242  and  C4_1243 
REMARK    7  A    between atoms: C4_1243  and  C3_1245 
REMARK    8  A    between atoms: C3_1245  and  C2_1247 
REMARK       I    between atoms: C2_1247  and  N1_1249 
ROOT
HETATM    1  C5  H1D A4398     -26.216  31.884 -19.449  1.00 21.03     0.094 C 
ENDROOT
BRANCH   1   2
HETATM    2  C4  H1D A4398     -25.822  30.509 -19.988  1.00 21.36     0.202 C 
HETATM    3  O4  H1D A4398     -24.589  30.640 -20.702  1.00 22.40    -0.219 OA
BRANCH   2   4
HETATM    4  C3  H1D A4398     -25.641  29.481 -18.869  1.00 21.38     0.265 C 
HETATM    5  O3  H1D A4398     -26.311  29.927 -17.687  1.00 19.75    -0.210 OA
BRANCH   4   6
HETATM    6  C2  H1D A4398     -26.261  28.157 -19.320  1.00 22.11     0.314 C 
HETATM    7  N1  H1D A4398     -27.537  27.989 -18.986  1.00 24.38    -0.056 NA
HETATM    8  O1  H1D A4398     -28.190  26.847 -19.332  1.00 24.98    -0.058 OA
HETATM    9  O2  H1D A4398     -25.593  27.327 -19.934  1.00 22.59    -0.265 OA
ENDBRANCH   4   6
ENDBRANCH   2   4
ENDBRANCH   1   2
BRANCH   1  10
HETATM   10  SD  H1D A4398     -24.864  33.105 -19.632  1.00 21.31    -0.137 SA
BRANCH  10  11
HETATM   11  CG  H1D A4398     -24.886  33.874 -17.971  1.00 23.39     0.060 C 
BRANCH  11  12
HETATM   12  CB  H1D A4398     -23.720  33.432 -17.084  1.00 24.93     0.062 C 
BRANCH  12  13
HETATM   13  CA  H1D A4398     -24.046  32.182 -16.264  1.00 23.34     0.388 C 
HETATM   14  N   H1D A4398     -24.879  32.539 -15.106  1.00 22.37     0.628 N 
BRANCH  13  15
HETATM   15  C   H1D A4398     -22.762  31.499 -15.783  1.00 23.96     0.224 C 
HETATM   16  OXT H1D A4398     -22.029  32.148 -15.007  1.00 20.34    -0.646 OA
HETATM   17  O   H1D A4398     -22.546  30.342 -16.204  1.00 24.70    -0.646 OA
ENDBRANCH  13  15
ENDBRANCH  12  13
ENDBRANCH  11  12
ENDBRANCH  10  11
ENDBRANCH   1  10
TORSDOF 8
ENDMDL
MODEL 7
REMARK VINA RESULT:      -4.0      2.810      4.796
REMARK  8 active torsions:
REMARK  status: ('A' for Active; 'I' for Inactive)
REMARK    1  A    between atoms: C_1235  and  CA_1237 
REMARK    2  A    between atoms: CA_1237  and  CB_1239 
REMARK    3  A    between atoms: CB_1239  and  CG_1240 
REMARK    4  A    between atoms: CG_1240  and  SD_1241 
REMARK    5  A    between atoms: SD_1241  and  C5_1242 
REMARK    6  A    between atoms: C5_1242  and  C4_1243 
REMARK    7  A    between atoms: C4_1243  and  C3_1245 
REMARK    8  A    between atoms: C3_1245  and  C2_1247 
REMARK       I    between atoms: C2_1247  and  N1_1249 
ROOT
HETATM    1  C5  H1D A4398     -24.926  33.963 -16.501  1.00 21.03     0.094 C 
ENDROOT
BRANCH   1   2
HETATM    2  C4  H1D A4398     -25.949  33.728 -17.613  1.00 21.36     0.202 C 
HETATM    3  O4  H1D A4398     -26.876  34.817 -17.612  1.00 22.40    -0.219 OA
BRANCH   2   4
HETATM    4  C3  H1D A4398     -25.290  33.638 -18.992  1.00 21.38     0.265 C 
HETATM    5  O3  H1D A4398     -23.873  33.775 -18.863  1.00 19.75    -0.210 OA
BRANCH   4   6
HETATM    6  C2  H1D A4398     -25.603  32.265 -19.590  1.00 22.11     0.314 C 
HETATM    7  N1  H1D A4398     -26.607  31.613 -19.012  1.00 24.38    -0.056 NA
HETATM    8  O1  H1D A4398     -26.970  30.381 -19.459  1.00 24.98    -0.058 OA
HETATM    9  O2  H1D A4398     -24.943  31.823 -20.529  1.00 22.59    -0.265 OA
ENDBRANCH   4   6
ENDBRANCH   2   4
ENDBRANCH   1   2
BRANCH   1  10
HETATM   10  SD  H1D A4398     -24.787  32.521 -15.382  1.00 21.31    -0.137 SA
BRANCH  10  11
HETATM   11  CG  H1D A4398     -23.263  31.744 -16.032  1.00 23.39     0.060 C 
BRANCH  11  12
HETATM   12  CB  H1D A4398     -22.006  32.588 -15.801  1.00 24.93     0.062 C 
BRANCH  12  13
HETATM   13  CA  H1D A4398     -20.994  31.895 -14.885  1.00 23.34     0.388 C 
HETATM   14  N   H1D A4398     -19.951  32.846 -14.473  1.00 22.37     0.628 N 
BRANCH  13  15
HETATM   15  C   H1D A4398     -20.349  30.702 -15.597  1.00 23.96     0.224 C 
HETATM   16  OXT H1D A4398     -20.370  29.605 -15.000  1.00 20.34    -0.646 OA
HETATM   17  O   H1D A4398     -19.849  30.918 -16.723  1.00 24.70    -0.646 OA
ENDBRANCH  13  15
ENDBRANCH  12  13
ENDBRANCH  11  12
ENDBRANCH  10  11
ENDBRANCH   1  10
TORSDOF 8
ENDMDL
MODEL 8
REMARK VINA RESULT:      -3.9      2.603      3.898
REMARK  8 active torsions:
REMARK  status: ('A' for Active; 'I' for Inactive)
REMARK    1  A    between atoms: C_1235  and  CA_1237 
REMARK    2  A    between atoms: CA_1237  and  CB_1239 
REMARK    3  A    between atoms: CB_1239  and  CG_1240 
REMARK    4  A    between atoms: CG_1240  and  SD_1241 
REMARK    5  A    between atoms: SD_1241  and  C5_1242 
REMARK    6  A    between atoms: C5_1242  and  C4_1243 
REMARK    7  A    between atoms: C4_1243  and  C3_1245 
REMARK    8  A    between atoms: C3_1245  and  C2_1247 
REMARK       I    between atoms: C2_1247  and  N1_1249 
ROOT
HETATM    1  C5  H1D A4398     -23.702  32.812 -19.201  1.00 21.03     0.094 C 
ENDROOT
BRANCH   1   2
HETATM    2  C4  H1D A4398     -24.195  31.422 -19.604  1.00 21.36     0.202 C 
HETATM    3  O4  H1D A4398     -23.070  30.539 -19.649  1.00 22.40    -0.219 OA
BRANCH   2   4
HETATM    4  C3  H1D A4398     -25.223  30.865 -18.616  1.00 21.38     0.265 C 
HETATM    5  O3  H1D A4398     -26.028  31.930 -18.102  1.00 19.75    -0.210 OA
BRANCH   4   6
HETATM    6  C2  H1D A4398     -26.125  29.878 -19.359  1.00 22.11     0.314 C 
HETATM    7  N1  H1D A4398     -26.657  28.922 -18.604  1.00 24.38    -0.056 NA
HETATM    8  O1  H1D A4398     -27.473  27.985 -19.160  1.00 24.98    -0.058 OA
HETATM    9  O2  H1D A4398     -26.309  29.983 -20.571  1.00 22.59    -0.265 OA
ENDBRANCH   4   6
ENDBRANCH   2   4
ENDBRANCH   1   2
BRANCH   1  10
HETATM   10  SD  H1D A4398     -22.174  32.733 -18.195  1.00 21.31    -0.137 SA
BRANCH  10  11
HETATM   11  CG  H1D A4398     -22.881  32.849 -16.511  1.00 23.39     0.060 C 
BRANCH  11  12
HETATM   12  CB  H1D A4398     -22.990  31.494 -15.806  1.00 24.93     0.062 C 
BRANCH  12  13
HETATM   13  CA  H1D A4398     -21.850  31.256 -14.811  1.00 23.34     0.388 C 
HETATM   14  N   H1D A4398     -21.127  32.511 -14.560  1.00 22.37     0.628 N 
BRANCH  13  15
HETATM   15  C   H1D A4398     -20.878  30.200 -15.345  1.00 23.96     0.224 C 
HETATM   16  OXT H1D A4398     -20.057  30.569 -16.211  1.00 20.34    -0.646 OA
HETATM   17  O   H1D A4398     -20.981  29.047 -14.873  1.00 24.70    -0.646 OA
ENDBRANCH  13  15
ENDBRANCH  12  13
ENDBRANCH  11  12
ENDBRANCH  10  11
ENDBRANCH   1  10
TORSDOF 8
ENDMDL
MODEL 9
REMARK VINA RESULT:      -3.9      2.482      4.047
REMARK  8 active torsions:
REMARK  status: ('A' for Active; 'I' for Inactive)
REMARK    1  A    between atoms: C_1235  and  CA_1237 
REMARK    2  A    between atoms: CA_1237  and  CB_1239 
REMARK    3  A    between atoms: CB_1239  and  CG_1240 
REMARK    4  A    between atoms: CG_1240  and  SD_1241 
REMARK    5  A    between atoms: SD_1241  and  C5_1242 
REMARK    6  A    between atoms: C5_1242  and  C4_1243 
REMARK    7  A    between atoms: C4_1243  and  C3_1245 
REMARK    8  A    between atoms: C3_1245  and  C2_1247 
REMARK       I    between atoms: C2_1247  and  N1_1249 
ROOT
HETATM    1  C5  H1D A4398     -24.663  31.725 -18.392  1.00 21.03     0.094 C 
ENDROOT
BRANCH   1   2
HETATM    2  C4  H1D A4398     -25.806  30.721 -18.546  1.00 21.36     0.202 C 
HETATM    3  O4  H1D A4398     -26.876  31.359 -19.250  1.00 22.40    -0.219 OA
BRANCH   2   4
HETATM    4  C3  H1D A4398     -25.378  29.472 -19.320  1.00 21.38     0.265 C 
HETATM    5  O3  H1D A4398     -23.963  29.297 -19.213  1.00 19.75    -0.210 OA
BRANCH   4   6
HETATM    6  C2  H1D A4398     -26.074  28.257 -18.704  1.00 22.11     0.314 C 
HETATM    7  N1  H1D A4398     -27.250  27.947 -19.243  1.00 24.38    -0.056 NA
HETATM    8  O1  H1D A4398     -27.961  26.887 -18.771  1.00 24.98    -0.058 OA
HETATM    9  O2  H1D A4398     -25.561  27.644 -17.770  1.00 22.59    -0.265 OA
ENDBRANCH   4   6
ENDBRANCH   2   4
ENDBRANCH   1   2
BRANCH   1  10
HETATM   10  SD  H1D A4398     -25.177  33.212 -17.458  1.00 21.31    -0.137 SA
BRANCH  10  11
HETATM   11  CG  H1D A4398     -24.037  33.116 -16.029  1.00 23.39     0.060 C 
BRANCH  11  12
HETATM   12  CB  H1D A4398     -23.579  31.689 -15.715  1.00 24.93     0.062 C 
BRANCH  12  13
HETATM   13  CA  H1D A4398     -22.112  31.624 -15.284  1.00 23.34     0.388 C 
HETATM   14  N   H1D A4398     -21.342  32.686 -15.949  1.00 22.37     0.628 N 
BRANCH  13  15
HETATM   15  C   H1D A4398     -21.507  30.260 -15.627  1.00 23.96     0.224 C 
HETATM   16  OXT H1D A4398     -20.528  29.884 -14.947  1.00 20.34    -0.646 OA
HETATM   17  O   H1D A4398     -22.039  29.624 -16.563  1.00 24.70    -0.646 OA
ENDBRANCH  13  15
ENDBRANCH  12  13
ENDBRANCH  11  12
ENDBRANCH  10  11
ENDBRANCH   1  10
TORSDOF 8
ENDMDL
