Compound 1
Actelion Java MolfileCreator 1.0

 33 32  0  0  1  0  0  0  0  0999 V2000
   -1.8619    1.1169    0.8376 S   0  0  0  0  0  0  0  0  0  0  0  0
   -0.6754   -0.0936    1.5435 C   0  0  0  0  0  0  0  0  0  0  0  0
   -1.0284    1.4991   -0.7429 C   0  0  0  0  0  0  0  0  0  0  0  0
   -0.8862   -1.4928    0.9416 C   0  0  0  0  0  0  0  0  0  0  0  0
    0.0951    2.5167   -0.5473 C   0  0  0  0  0  0  0  0  0  0  0  0
   -2.2163   -1.9542    1.2574 O   0  0  0  0  0  0  0  0  0  0  0  0
    0.1662   -2.4832    1.4814 C   0  0  0  0  0  0  0  0  0  0  0  0
    0.7917    2.8572   -1.8698 C   0  0  0  0  0  0  0  0  0  0  0  0
    0.1477   -2.5225    2.9103 O   0  0  0  0  0  0  0  0  0  0  0  0
    0.0369   -3.9108    0.9304 C   0  0  0  0  0  0  0  0  0  0  0  0
    1.5002    1.6651   -2.3958 N   0  0  0  0  0  0  0  0  0  0  0  0
    1.7861    4.0056   -1.6667 C   0  0  0  0  0  0  0  0  0  0  0  0
    0.9745   -4.7111    0.9932 O   0  0  0  0  0  0  0  0  0  0  0  0
   -1.1911   -4.2758    0.4439 N   0  0  0  0  0  0  0  0  0  0  0  0
    3.0033    3.9264   -1.7384 O   0  0  0  0  0  0  0  0  0  0  0  0
    1.1886    5.1832   -1.4031 O   0  0  0  0  0  0  0  0  0  0  0  0
   -1.3447   -5.6479    0.1322 O   0  0  0  0  0  0  0  0  0  0  0  0
    0.3499    0.2576    1.3990 H   0  0  0  0  0  0  0  0  0  0  0  0
   -0.8784   -0.1135    2.6196 H   0  0  0  0  0  0  0  0  0  0  0  0
   -1.7865    1.9169   -1.4142 H   0  0  0  0  0  0  0  0  0  0  0  0
   -0.6694    0.5727   -1.1987 H   0  0  0  0  0  0  0  0  0  0  0  0
   -0.8123   -1.4647   -0.1513 H   0  0  0  0  0  0  0  0  0  0  0  0
    0.8384    2.1477    0.1709 H   0  0  0  0  0  0  0  0  0  0  0  0
   -0.3210    3.4343   -0.1106 H   0  0  0  0  0  0  0  0  0  0  0  0
   -2.7963   -1.1662    1.2076 H   0  0  0  0  0  0  0  0  0  0  0  0
    1.1586   -2.1226    1.1825 H   0  0  0  0  0  0  0  0  0  0  0  0
    0.0627    3.1760   -2.6237 H   0  0  0  0  0  0  0  0  0  0  0  0
    0.7894   -3.2087    3.1768 H   0  0  0  0  0  0  0  0  0  0  0  0
    2.3221    1.5040   -1.8049 H   0  0  0  0  0  0  0  0  0  0  0  0
    1.9082    1.9154   -3.3005 H   0  0  0  0  0  0  0  0  0  0  0  0
   -2.0227   -3.7809    0.7809 H   0  0  0  0  0  0  0  0  0  0  0  0
    1.9300    5.8178   -1.3055 H   0  0  0  0  0  0  0  0  0  0  0  0
   -0.4603   -6.0153    0.3485 H   0  0  0  0  0  0  0  0  0  0  0  0
  1  2  1  0  0  0  0
  1  3  1  0  0  0  0
  2  4  1  0  0  0  0
  3  5  1  0  0  0  0
  4  6  1  0  0  0  0
  4  7  1  0  0  0  0
  5  8  1  0  0  0  0
  7  9  1  0  0  0  0
  7 10  1  0  0  0  0
  8 11  1  0  0  0  0
  8 12  1  0  0  0  0
 10 13  2  0  0  0  0
 10 14  1  0  0  0  0
 12 15  2  0  0  0  0
 12 16  1  0  0  0  0
 14 17  1  0  0  0  0
  2 18  1  0  0  0  0
  2 19  1  0  0  0  0
  3 20  1  0  0  0  0
  3 21  1  0  0  0  0
  4 22  1  0  0  0  0
  5 23  1  0  0  0  0
  5 24  1  0  0  0  0
  6 25  1  0  0  0  0
  7 26  1  0  0  0  0
  8 27  1  0  0  0  0
  9 28  1  0  0  0  0
 11 29  1  0  0  0  0
 11 30  1  0  0  0  0
 14 31  1  0  0  0  0
 16 32  1  0  0  0  0
 17 33  1  0  0  0  0
M  END
>  <Molecule Name>
Active 1

>  <Molecule ChEMBL ID>
CHEMBL208091

>  <Molecule Name 2>


>  <Molecule Max Phase>
None

>  <Molecular Weight>
268.29

>  <#RO5 Violations>
1

>  <AlogP>
-2.25

>  <Compound Key>
11

>  <Smiles>
N[C@@H](CCSC[C@H](O)[C@@H](O)C(=O)NO)C(=O)O

>  <Standard Type>
Ki

>  <Standard Relation>
'='

>  <Standard Value>
370

>  <Standard Units>
nM

>  <pChEMBL Value>
6.43

>  <Data Validity Comment>


>  <Comment>


>  <Uo Units>
UO_0000065

>  <Ligand Efficiency BEI>
23.97

>  <Ligand Efficiency LE>
0.52

>  <Ligand Efficiency LLE>
8.68

>  <Ligand Efficiency SEI>
4.2

>  <Potential Duplicate>
0

>  <Assay ChEMBL ID>
CHEMBL861693

>  <Assay Description>
Inhibition of cobalt substituted Bacillus subtilis LuxS

>  <Assay Type>
B

>  <BAO Format ID>
BAO_0000357

>  <BAO Label>
single protein format

>  <Assay Organism>
Bacillus subtilis

>  <Assay Tissue ChEMBL ID>
None

>  <Assay Tissue Name>
None

>  <Assay Cell Type>
None

>  <Assay Subcellular Fraction>
None

>  <Assay Parameters>


>  <Assay Variant Accession>


>  <Assay Variant Mutation>


>  <Target ChEMBL ID>
CHEMBL5171

>  <Target Name>
S-ribosylhomocysteine lyase

>  <Target Organism>
Bacillus subtilis (strain 168)

>  <Target Type>
SINGLE PROTEIN

>  <Document ChEMBL ID>
CHEMBL1147680

>  <Source ID>
1

>  <Source Description>
Scientific Literature

>  <Document Journal>
J Med Chem

>  <Document Year>
2006

>  <Cell ChEMBL ID>
None

>  <MMFF94 Energy>
102.76

$$$$
Compound 2
Actelion Java MolfileCreator 1.0

 34 34  0  0  1  0  0  0  0  0999 V2000
   -0.7526    0.5644    2.1646 S   0  0  0  0  0  0  0  0  0  0  0  0
   -1.0229   -0.7864    0.9503 C   0  0  0  0  0  0  0  0  0  0  0  0
    0.1749    1.7842    1.1679 C   0  0  0  0  0  0  0  0  0  0  0  0
   -1.8769   -0.3967   -0.2603 C   0  0  0  0  0  0  0  0  0  0  0  0
    1.5153    1.3055    0.6090 C   0  0  0  0  0  0  0  0  0  0  0  0
   -1.0915    0.3249   -1.2292 O   0  0  0  0  0  0  0  0  0  0  0  0
   -2.4209   -1.6382   -0.9780 C   0  0  0  0  0  0  0  0  0  0  0  0
    2.5229    0.7833    1.6413 C   0  0  0  0  0  0  0  0  0  0  0  0
   -1.2982   -0.2656   -2.5148 C   0  0  0  0  0  0  0  0  0  0  0  0
   -3.6737   -2.0756   -0.4589 O   0  0  0  0  0  0  0  0  0  0  0  0
   -2.5340   -1.1604   -2.4133 C   0  0  0  0  0  0  0  0  0  0  0  0
    2.8477    1.8277    2.6382 N   0  0  0  0  0  0  0  0  0  0  0  0
    3.8059    0.3164    0.9354 C   0  0  0  0  0  0  0  0  0  0  0  0
   -0.1555   -1.0514   -2.8064 O   0  0  0  0  0  0  0  0  0  0  0  0
   -3.7500   -0.4153   -2.5779 O   0  0  0  0  0  0  0  0  0  0  0  0
    3.9273   -0.0207   -0.2317 O   0  0  0  0  0  0  0  0  0  0  0  0
    4.8650    0.2343    1.7768 O   0  0  0  0  0  0  0  0  0  0  0  0
   -0.0474   -1.1739    0.6402 H   0  0  0  0  0  0  0  0  0  0  0  0
   -1.5273   -1.5801    1.5122 H   0  0  0  0  0  0  0  0  0  0  0  0
   -0.4673    2.1452    0.3593 H   0  0  0  0  0  0  0  0  0  0  0  0
    0.3403    2.6524    1.8157 H   0  0  0  0  0  0  0  0  0  0  0  0
   -2.7054    0.2509    0.0535 H   0  0  0  0  0  0  0  0  0  0  0  0
    1.3412    0.5316   -0.1480 H   0  0  0  0  0  0  0  0  0  0  0  0
    1.9676    2.1422    0.0579 H   0  0  0  0  0  0  0  0  0  0  0  0
   -1.7080   -2.4692   -0.9158 H   0  0  0  0  0  0  0  0  0  0  0  0
    2.1303   -0.0983    2.1602 H   0  0  0  0  0  0  0  0  0  0  0  0
   -1.4095    0.5220   -3.2666 H   0  0  0  0  0  0  0  0  0  0  0  0
   -4.2783   -1.3105   -0.5080 H   0  0  0  0  0  0  0  0  0  0  0  0
   -2.5309   -1.9819   -3.1369 H   0  0  0  0  0  0  0  0  0  0  0  0
    2.0830    1.8834    3.3118 H   0  0  0  0  0  0  0  0  0  0  0  0
    3.6617    1.5012    3.1672 H   0  0  0  0  0  0  0  0  0  0  0  0
    0.5621   -0.4081   -2.9419 H   0  0  0  0  0  0  0  0  0  0  0  0
   -4.4504   -1.0771   -2.7289 H   0  0  0  0  0  0  0  0  0  0  0  0
    5.5963   -0.0633    1.1966 H   0  0  0  0  0  0  0  0  0  0  0  0
  1  2  1  0  0  0  0
  1  3  1  0  0  0  0
  2  4  1  0  0  0  0
  3  5  1  0  0  0  0
  4  6  1  0  0  0  0
  4  7  1  0  0  0  0
  5  8  1  0  0  0  0
  6  9  1  0  0  0  0
  7 10  1  0  0  0  0
  7 11  1  0  0  0  0
  8 12  1  0  0  0  0
  8 13  1  0  0  0  0
  9 14  1  0  0  0  0
 11 15  1  0  0  0  0
 13 16  2  0  0  0  0
 13 17  1  0  0  0  0
  9 11  1  0  0  0  0
  2 18  1  0  0  0  0
  2 19  1  0  0  0  0
  3 20  1  0  0  0  0
  3 21  1  0  0  0  0
  4 22  1  0  0  0  0
  5 23  1  0  0  0  0
  5 24  1  0  0  0  0
  7 25  1  0  0  0  0
  8 26  1  0  0  0  0
  9 27  1  0  0  0  0
 10 28  1  0  0  0  0
 11 29  1  0  0  0  0
 12 30  1  0  0  0  0
 12 31  1  0  0  0  0
 14 32  1  0  0  0  0
 15 33  1  0  0  0  0
 17 34  1  0  0  0  0
M  END
>  <Molecule Name>
Active 2

>  <Molecule ChEMBL ID>
CHEMBL593446

>  <Molecule Name 2>


>  <Molecule Max Phase>
None

>  <Molecular Weight>
267.3

>  <#RO5 Violations>
0

>  <AlogP>
-2.04

>  <Compound Key>
16

>  <Smiles>
N[C@@H](CCSC[C@H]1OC(O)[C@H](O)[C@@H]1O)C(=O)O

>  <Standard Type>
Ki

>  <Standard Relation>
'='

>  <Standard Value>
430

>  <Standard Units>
nM

>  <pChEMBL Value>
6.37

>  <Data Validity Comment>


>  <Comment>


>  <Uo Units>
UO_0000065

>  <Ligand Efficiency BEI>
23.82

>  <Ligand Efficiency LE>
0.51

>  <Ligand Efficiency LLE>
8.41

>  <Ligand Efficiency SEI>
4.78

>  <Potential Duplicate>
0

>  <Assay ChEMBL ID>
CHEMBL1071831

>  <Assay Description>
Inhibition of Bacillus subtilis LuxS assessed as enzyme-inhibitor dissociation constant

>  <Assay Type>
B

>  <BAO Format ID>
BAO_0000357

>  <BAO Label>
single protein format

>  <Assay Organism>
Bacillus subtilis

>  <Assay Tissue ChEMBL ID>
None

>  <Assay Tissue Name>
None

>  <Assay Cell Type>
None

>  <Assay Subcellular Fraction>
None

>  <Assay Parameters>


>  <Assay Variant Accession>


>  <Assay Variant Mutation>


>  <Target ChEMBL ID>
CHEMBL5171

>  <Target Name>
S-ribosylhomocysteine lyase

>  <Target Organism>
Bacillus subtilis (strain 168)

>  <Target Type>
SINGLE PROTEIN

>  <Document ChEMBL ID>
CHEMBL1152553

>  <Source ID>
1

>  <Source Description>
Scientific Literature

>  <Document Journal>
Bioorg Med Chem

>  <Document Year>
2009

>  <Cell ChEMBL ID>
None

>  <MMFF94 Energy>
85.906

$$$$
Compound 3
Actelion Java MolfileCreator 1.0

 33 32  0  0  1  0  0  0  0  0999 V2000
    1.2101    0.4653    1.3032 S   0  0  0  0  0  0  0  0  0  0  0  0
   -0.1929   -0.5757    0.7523 C   0  0  0  0  0  0  0  0  0  0  0  0
    0.3087    1.9924    1.7511 C   0  0  0  0  0  0  0  0  0  0  0  0
    0.2938   -2.0101    0.4913 C   0  0  0  0  0  0  0  0  0  0  0  0
   -0.2792    2.7522    0.5607 C   0  0  0  0  0  0  0  0  0  0  0  0
    1.2561   -1.9871   -0.5845 O   0  0  0  0  0  0  0  0  0  0  0  0
   -0.8743   -2.9006    0.0385 C   0  0  0  0  0  0  0  0  0  0  0  0
    0.7641    3.3502   -0.3922 C   0  0  0  0  0  0  0  0  0  0  0  0
   -1.1931   -2.6032   -1.3287 O   0  0  0  0  0  0  0  0  0  0  0  0
   -0.5449   -4.3884    0.2085 C   0  0  0  0  0  0  0  0  0  0  0  0
    1.5239    4.4257    0.2883 N   0  0  0  0  0  0  0  0  0  0  0  0
    0.0754    3.9134   -1.6413 C   0  0  0  0  0  0  0  0  0  0  0  0
    0.2482   -4.8473    1.0274 O   0  0  0  0  0  0  0  0  0  0  0  0
   -1.3034   -5.1983   -0.6117 N   0  0  0  0  0  0  0  0  0  0  0  0
    0.0316    5.0874   -1.9773 O   0  0  0  0  0  0  0  0  0  0  0  0
   -0.5001    2.9629   -2.4036 O   0  0  0  0  0  0  0  0  0  0  0  0
   -0.9459   -6.5680   -0.6072 O   0  0  0  0  0  0  0  0  0  0  0  0
   -0.5931   -0.1417   -0.1687 H   0  0  0  0  0  0  0  0  0  0  0  0
   -0.9668   -0.5714    1.5261 H   0  0  0  0  0  0  0  0  0  0  0  0
   -0.4923    1.7200    2.4470 H   0  0  0  0  0  0  0  0  0  0  0  0
    1.0002    2.6324    2.3086 H   0  0  0  0  0  0  0  0  0  0  0  0
    0.7789   -2.4167    1.3863 H   0  0  0  0  0  0  0  0  0  0  0  0
   -0.9710    2.1035    0.0109 H   0  0  0  0  0  0  0  0  0  0  0  0
   -0.9092    3.5637    0.9520 H   0  0  0  0  0  0  0  0  0  0  0  0
    1.9683   -1.3867   -0.2816 H   0  0  0  0  0  0  0  0  0  0  0  0
   -1.7683   -2.7133    0.6446 H   0  0  0  0  0  0  0  0  0  0  0  0
    1.4801    2.5957   -0.7340 H   0  0  0  0  0  0  0  0  0  0  0  0
   -0.3180   -2.4449   -1.7492 H   0  0  0  0  0  0  0  0  0  0  0  0
    0.8967    5.2231    0.4249 H   0  0  0  0  0  0  0  0  0  0  0  0
    2.2264    4.7794   -0.3653 H   0  0  0  0  0  0  0  0  0  0  0  0
   -1.6478   -4.8142   -1.4899 H   0  0  0  0  0  0  0  0  0  0  0  0
   -0.8730    3.4576   -3.1639 H   0  0  0  0  0  0  0  0  0  0  0  0
   -0.2396   -6.6013    0.0747 H   0  0  0  0  0  0  0  0  0  0  0  0
  1  2  1  0  0  0  0
  1  3  1  0  0  0  0
  2  4  1  0  0  0  0
  3  5  1  0  0  0  0
  4  6  1  0  0  0  0
  4  7  1  0  0  0  0
  5  8  1  0  0  0  0
  7  9  1  0  0  0  0
  7 10  1  0  0  0  0
  8 11  1  0  0  0  0
  8 12  1  0  0  0  0
 10 13  2  0  0  0  0
 10 14  1  0  0  0  0
 12 15  2  0  0  0  0
 12 16  1  0  0  0  0
 14 17  1  0  0  0  0
  2 18  1  0  0  0  0
  2 19  1  0  0  0  0
  3 20  1  0  0  0  0
  3 21  1  0  0  0  0
  4 22  1  0  0  0  0
  5 23  1  0  0  0  0
  5 24  1  0  0  0  0
  6 25  1  0  0  0  0
  7 26  1  0  0  0  0
  8 27  1  0  0  0  0
  9 28  1  0  0  0  0
 11 29  1  0  0  0  0
 11 30  1  0  0  0  0
 14 31  1  0  0  0  0
 16 32  1  0  0  0  0
 17 33  1  0  0  0  0
M  END
>  <Molecule Name>
Active 3

>  <Molecule ChEMBL ID>
CHEMBL208091

>  <Molecule Name 2>


>  <Molecule Max Phase>
None

>  <Molecular Weight>
268.29

>  <#RO5 Violations>
1

>  <AlogP>
-2.25

>  <Compound Key>
11

>  <Smiles>
N[C@@H](CCSC[C@H](O)[C@@H](O)C(=O)NO)C(=O)O

>  <Standard Type>
Ki

>  <Standard Relation>
'='

>  <Standard Value>
430

>  <Standard Units>
nM

>  <pChEMBL Value>
6.37

>  <Data Validity Comment>


>  <Comment>


>  <Uo Units>
UO_0000065

>  <Ligand Efficiency BEI>
23.73

>  <Ligand Efficiency LE>
0.51

>  <Ligand Efficiency LLE>
8.62

>  <Ligand Efficiency SEI>
4.16

>  <Potential Duplicate>
0

>  <Assay ChEMBL ID>
CHEMBL870015

>  <Assay Description>
Inhibition of ferrous substituted Bacillus subtilis LuxS

>  <Assay Type>
B

>  <BAO Format ID>
BAO_0000357

>  <BAO Label>
single protein format

>  <Assay Organism>
Bacillus subtilis

>  <Assay Tissue ChEMBL ID>
None

>  <Assay Tissue Name>
None

>  <Assay Cell Type>
None

>  <Assay Subcellular Fraction>
None

>  <Assay Parameters>


>  <Assay Variant Accession>


>  <Assay Variant Mutation>


>  <Target ChEMBL ID>
CHEMBL5171

>  <Target Name>
S-ribosylhomocysteine lyase

>  <Target Organism>
Bacillus subtilis (strain 168)

>  <Target Type>
SINGLE PROTEIN

>  <Document ChEMBL ID>
CHEMBL1147680

>  <Source ID>
1

>  <Source Description>
Scientific Literature

>  <Document Journal>
J Med Chem

>  <Document Year>
2006

>  <Cell ChEMBL ID>
None

>  <MMFF94 Energy>
99.935

$$$$
Compound 4
Actelion Java MolfileCreator 1.0

 33 33  0  0  1  0  0  0  0  0999 V2000
   -0.9379    1.3132   -0.8441 S   0  0  0  0  0  0  0  0  0  0  0  0
   -0.9116   -0.2442   -1.8124 C   0  0  0  0  0  0  0  0  0  0  0  0
    0.6982    1.2085   -0.0342 C   0  0  0  0  0  0  0  0  0  0  0  0
   -1.5128   -1.4594   -1.0960 C   0  0  0  0  0  0  0  0  0  0  0  0
    1.8028    1.7201   -0.9613 C   0  0  0  0  0  0  0  0  0  0  0  0
   -0.6948   -1.8183    0.0369 O   0  0  0  0  0  0  0  0  0  0  0  0
   -2.9422   -1.2728   -0.5999 C   0  0  0  0  0  0  0  0  0  0  0  0
    3.2069    1.6799   -0.3415 C   0  0  0  0  0  0  0  0  0  0  0  0
   -1.5619   -2.0962    1.1382 C   0  0  0  0  0  0  0  0  0  0  0  0
   -3.6791   -2.3821   -0.9232 F   0  0  0  0  0  0  0  0  0  0  0  0
   -2.8093   -1.2402    0.9085 C   0  0  0  0  0  0  0  0  0  0  0  0
    3.6377    0.2890   -0.0758 N   0  0  0  0  0  0  0  0  0  0  0  0
    3.2936    2.5211    0.9365 C   0  0  0  0  0  0  0  0  0  0  0  0
   -1.8736   -3.4817    1.1629 O   0  0  0  0  0  0  0  0  0  0  0  0
   -3.9615   -1.7596    1.5762 O   0  0  0  0  0  0  0  0  0  0  0  0
    3.5515    2.1085    2.0571 O   0  0  0  0  0  0  0  0  0  0  0  0
    3.0618    3.8307    0.7260 O   0  0  0  0  0  0  0  0  0  0  0  0
    0.1187   -0.4578   -2.1126 H   0  0  0  0  0  0  0  0  0  0  0  0
   -1.4842   -0.0533   -2.7263 H   0  0  0  0  0  0  0  0  0  0  0  0
    0.8823    0.1834    0.2945 H   0  0  0  0  0  0  0  0  0  0  0  0
    0.6432    1.8323    0.8637 H   0  0  0  0  0  0  0  0  0  0  0  0
   -1.4784   -2.3086   -1.7889 H   0  0  0  0  0  0  0  0  0  0  0  0
    1.8172    1.1371   -1.8909 H   0  0  0  0  0  0  0  0  0  0  0  0
    1.5779    2.7556   -1.2499 H   0  0  0  0  0  0  0  0  0  0  0  0
   -3.4750   -0.4155   -1.0182 H   0  0  0  0  0  0  0  0  0  0  0  0
    3.9241    2.1040   -1.0541 H   0  0  0  0  0  0  0  0  0  0  0  0
   -1.0623   -1.8457    2.0784 H   0  0  0  0  0  0  0  0  0  0  0  0
   -2.6257   -0.2170    1.2514 H   0  0  0  0  0  0  0  0  0  0  0  0
    4.6045    0.3123    0.2568 H   0  0  0  0  0  0  0  0  0  0  0  0
    3.1175   -0.0724    0.7277 H   0  0  0  0  0  0  0  0  0  0  0  0
   -2.8116   -3.5382    1.4202 H   0  0  0  0  0  0  0  0  0  0  0  0
   -4.5329   -2.1568    0.8882 H   0  0  0  0  0  0  0  0  0  0  0  0
    3.1611    4.2417    1.6109 H   0  0  0  0  0  0  0  0  0  0  0  0
  1  2  1  0  0  0  0
  1  3  1  0  0  0  0
  2  4  1  0  0  0  0
  3  5  1  0  0  0  0
  4  6  1  0  0  0  0
  4  7  1  0  0  0  0
  5  8  1  0  0  0  0
  6  9  1  0  0  0  0
  7 10  1  0  0  0  0
  7 11  1  0  0  0  0
  8 12  1  0  0  0  0
  8 13  1  0  0  0  0
  9 14  1  0  0  0  0
 11 15  1  0  0  0  0
 13 16  2  0  0  0  0
 13 17  1  0  0  0  0
  9 11  1  0  0  0  0
  2 18  1  0  0  0  0
  2 19  1  0  0  0  0
  3 20  1  0  0  0  0
  3 21  1  0  0  0  0
  4 22  1  0  0  0  0
  5 23  1  0  0  0  0
  5 24  1  0  0  0  0
  7 25  1  0  0  0  0
  8 26  1  0  0  0  0
  9 27  1  0  0  0  0
 11 28  1  0  0  0  0
 12 29  1  0  0  0  0
 12 30  1  0  0  0  0
 14 31  1  0  0  0  0
 15 32  1  0  0  0  0
 17 33  1  0  0  0  0
M  END
>  <Molecule Name>
Active 4

>  <Molecule ChEMBL ID>
CHEMBL595659

>  <Molecule Name 2>


>  <Molecule Max Phase>
None

>  <Molecular Weight>
269.29

>  <#RO5 Violations>
0

>  <AlogP>
-1.06

>  <Compound Key>
22

>  <Smiles>
N[C@@H](CCSC[C@H]1OC(O)[C@H](O)[C@@H]1F)C(=O)O

>  <Standard Type>
Ki

>  <Standard Relation>
'='

>  <Standard Value>
700

>  <Standard Units>
nM

>  <pChEMBL Value>
6.16

>  <Data Validity Comment>


>  <Comment>


>  <Uo Units>
UO_0000065

>  <Ligand Efficiency BEI>
22.86

>  <Ligand Efficiency LE>
0.49

>  <Ligand Efficiency LLE>
7.21

>  <Ligand Efficiency SEI>
5.45

>  <Potential Duplicate>
0

>  <Assay ChEMBL ID>
CHEMBL1071831

>  <Assay Description>
Inhibition of Bacillus subtilis LuxS assessed as enzyme-inhibitor dissociation constant

>  <Assay Type>
B

>  <BAO Format ID>
BAO_0000357

>  <BAO Label>
single protein format

>  <Assay Organism>
Bacillus subtilis

>  <Assay Tissue ChEMBL ID>
None

>  <Assay Tissue Name>
None

>  <Assay Cell Type>
None

>  <Assay Subcellular Fraction>
None

>  <Assay Parameters>


>  <Assay Variant Accession>


>  <Assay Variant Mutation>


>  <Target ChEMBL ID>
CHEMBL5171

>  <Target Name>
S-ribosylhomocysteine lyase

>  <Target Organism>
Bacillus subtilis (strain 168)

>  <Target Type>
SINGLE PROTEIN

>  <Document ChEMBL ID>
CHEMBL1152553

>  <Source ID>
1

>  <Source Description>
Scientific Literature

>  <Document Journal>
Bioorg Med Chem

>  <Document Year>
2009

>  <Cell ChEMBL ID>
None

>  <MMFF94 Energy>
73.913

$$$$
Compound 5
Actelion Java MolfileCreator 1.0

 33 32  0  0  1  0  0  0  0  0999 V2000
   -0.8380   -1.0243    1.0243 S   0  0  0  0  0  0  0  0  0  0  0  0
    0.9030   -0.5491    1.3618 C   0  0  0  0  0  0  0  0  0  0  0  0
   -0.7935   -1.0262   -0.8013 C   0  0  0  0  0  0  0  0  0  0  0  0
    1.1281    0.9569    1.1431 C   0  0  0  0  0  0  0  0  0  0  0  0
   -2.0965   -1.5406   -1.4244 C   0  0  0  0  0  0  0  0  0  0  0  0
    0.3043    1.6875    2.0767 O   0  0  0  0  0  0  0  0  0  0  0  0
    2.5789    1.3880    1.4090 C   0  0  0  0  0  0  0  0  0  0  0  0
   -3.3700   -0.7612   -1.0681 C   0  0  0  0  0  0  0  0  0  0  0  0
    2.9368    1.1060    2.7673 O   0  0  0  0  0  0  0  0  0  0  0  0
    3.5548    0.7420    0.4259 C   0  0  0  0  0  0  0  0  0  0  0  0
   -4.5314   -1.4914   -1.6358 N   0  0  0  0  0  0  0  0  0  0  0  0
   -3.3630    0.6772   -1.6102 C   0  0  0  0  0  0  0  0  0  0  0  0
    3.2369    0.2733   -0.6651 O   0  0  0  0  0  0  0  0  0  0  0  0
    4.8597    0.7740    0.8685 N   0  0  0  0  0  0  0  0  0  0  0  0
   -2.3987    1.3455   -1.9438 O   0  0  0  0  0  0  0  0  0  0  0  0
   -4.6033    1.2240   -1.6393 O   0  0  0  0  0  0  0  0  0  0  0  0
    5.7820    0.0503    0.0742 O   0  0  0  0  0  0  0  0  0  0  0  0
    1.5625   -1.1679    0.7482 H   0  0  0  0  0  0  0  0  0  0  0  0
    1.0828   -0.8050    2.4114 H   0  0  0  0  0  0  0  0  0  0  0  0
    0.0229   -1.6837   -1.1193 H   0  0  0  0  0  0  0  0  0  0  0  0
   -0.5593   -0.0219   -1.1580 H   0  0  0  0  0  0  0  0  0  0  0  0
    0.8389    1.2606    0.1314 H   0  0  0  0  0  0  0  0  0  0  0  0
   -1.9645   -1.5377   -2.5151 H   0  0  0  0  0  0  0  0  0  0  0  0
   -2.2213   -2.5938   -1.1364 H   0  0  0  0  0  0  0  0  0  0  0  0
   -0.6022    1.3379    1.9621 H   0  0  0  0  0  0  0  0  0  0  0  0
    2.6647    2.4747    1.2872 H   0  0  0  0  0  0  0  0  0  0  0  0
   -3.5099   -0.6948    0.0155 H   0  0  0  0  0  0  0  0  0  0  0  0
    2.1784    1.4375    3.2932 H   0  0  0  0  0  0  0  0  0  0  0  0
   -5.3570   -0.8994   -1.5088 H   0  0  0  0  0  0  0  0  0  0  0  0
   -4.6948   -2.3328   -1.0850 H   0  0  0  0  0  0  0  0  0  0  0  0
    5.0180    0.7645    1.8757 H   0  0  0  0  0  0  0  0  0  0  0  0
   -4.4539    2.1165   -2.0152 H   0  0  0  0  0  0  0  0  0  0  0  0
    5.2337   -0.2315   -0.6898 H   0  0  0  0  0  0  0  0  0  0  0  0
  1  2  1  0  0  0  0
  1  3  1  0  0  0  0
  2  4  1  0  0  0  0
  3  5  1  0  0  0  0
  4  6  1  0  0  0  0
  4  7  1  0  0  0  0
  5  8  1  0  0  0  0
  7  9  1  0  0  0  0
  7 10  1  0  0  0  0
  8 11  1  0  0  0  0
  8 12  1  0  0  0  0
 10 13  2  0  0  0  0
 10 14  1  0  0  0  0
 12 15  2  0  0  0  0
 12 16  1  0  0  0  0
 14 17  1  0  0  0  0
  2 18  1  0  0  0  0
  2 19  1  0  0  0  0
  3 20  1  0  0  0  0
  3 21  1  0  0  0  0
  4 22  1  0  0  0  0
  5 23  1  0  0  0  0
  5 24  1  0  0  0  0
  6 25  1  0  0  0  0
  7 26  1  0  0  0  0
  8 27  1  0  0  0  0
  9 28  1  0  0  0  0
 11 29  1  0  0  0  0
 11 30  1  0  0  0  0
 14 31  1  0  0  0  0
 16 32  1  0  0  0  0
 17 33  1  0  0  0  0
M  END
>  <Molecule Name>
Active 5

>  <Molecule ChEMBL ID>
CHEMBL207406

>  <Molecule Name 2>


>  <Molecule Max Phase>
None

>  <Molecular Weight>
268.29

>  <#RO5 Violations>
1

>  <AlogP>
-2.25

>  <Compound Key>
10

>  <Smiles>
N[C@@H](CCSC[C@@H](O)[C@@H](O)C(=O)NO)C(=O)O

>  <Standard Type>
Ki

>  <Standard Relation>
'='

>  <Standard Value>
720

>  <Standard Units>
nM

>  <pChEMBL Value>
6.14

>  <Data Validity Comment>


>  <Comment>


>  <Uo Units>
UO_0000065

>  <Ligand Efficiency BEI>
22.9

>  <Ligand Efficiency LE>
0.49

>  <Ligand Efficiency LLE>
8.39

>  <Ligand Efficiency SEI>
4.01

>  <Potential Duplicate>
0

>  <Assay ChEMBL ID>
CHEMBL861693

>  <Assay Description>
Inhibition of cobalt substituted Bacillus subtilis LuxS

>  <Assay Type>
B

>  <BAO Format ID>
BAO_0000357

>  <BAO Label>
single protein format

>  <Assay Organism>
Bacillus subtilis

>  <Assay Tissue ChEMBL ID>
None

>  <Assay Tissue Name>
None

>  <Assay Cell Type>
None

>  <Assay Subcellular Fraction>
None

>  <Assay Parameters>


>  <Assay Variant Accession>


>  <Assay Variant Mutation>


>  <Target ChEMBL ID>
CHEMBL5171

>  <Target Name>
S-ribosylhomocysteine lyase

>  <Target Organism>
Bacillus subtilis (strain 168)

>  <Target Type>
SINGLE PROTEIN

>  <Document ChEMBL ID>
CHEMBL1147680

>  <Source ID>
1

>  <Source Description>
Scientific Literature

>  <Document Journal>
J Med Chem

>  <Document Year>
2006

>  <Cell ChEMBL ID>
None

>  <MMFF94 Energy>
98.962

$$$$
Compound 6
Actelion Java MolfileCreator 1.0

 33 32  0  0  1  0  0  0  0  0999 V2000
   -0.7444    1.5823   -0.4652 S   0  0  0  0  0  0  0  0  0  0  0  0
    0.4955    0.2343   -0.3527 C   0  0  0  0  0  0  0  0  0  0  0  0
   -1.7550    1.1849    1.0046 C   0  0  0  0  0  0  0  0  0  0  0  0
    1.5192    0.3688   -1.4929 C   0  0  0  0  0  0  0  0  0  0  0  0
   -2.7142    0.0240    0.7371 C   0  0  0  0  0  0  0  0  0  0  0  0
    2.1253    1.6755   -1.4559 O   0  0  0  0  0  0  0  0  0  0  0  0
    2.6204   -0.7006   -1.3822 C   0  0  0  0  0  0  0  0  0  0  0  0
   -3.5433   -0.3938    1.9608 C   0  0  0  0  0  0  0  0  0  0  0  0
    2.0348   -1.9976   -1.2419 O   0  0  0  0  0  0  0  0  0  0  0  0
    3.5344   -0.6681   -2.6152 C   0  0  0  0  0  0  0  0  0  0  0  0
   -4.4114    0.7081    2.4337 N   0  0  0  0  0  0  0  0  0  0  0  0
   -2.6558   -0.9006    3.1038 C   0  0  0  0  0  0  0  0  0  0  0  0
    3.7359   -1.6699   -3.3055 O   0  0  0  0  0  0  0  0  0  0  0  0
    4.1585    0.5317   -2.8537 N   0  0  0  0  0  0  0  0  0  0  0  0
   -2.5881   -0.4286    4.2287 O   0  0  0  0  0  0  0  0  0  0  0  0
   -1.9170   -1.9747    2.7675 O   0  0  0  0  0  0  0  0  0  0  0  0
    4.8921    0.6050   -4.0620 O   0  0  0  0  0  0  0  0  0  0  0  0
   -0.0145   -0.7309   -0.4027 H   0  0  0  0  0  0  0  0  0  0  0  0
    0.9993    0.3299    0.6148 H   0  0  0  0  0  0  0  0  0  0  0  0
   -2.3187    2.0899    1.2523 H   0  0  0  0  0  0  0  0  0  0  0  0
   -1.0863    0.9766    1.8453 H   0  0  0  0  0  0  0  0  0  0  0  0
    1.0076    0.2685   -2.4588 H   0  0  0  0  0  0  0  0  0  0  0  0
   -3.4001    0.2988   -0.0756 H   0  0  0  0  0  0  0  0  0  0  0  0
   -2.1548   -0.8510    0.3858 H   0  0  0  0  0  0  0  0  0  0  0  0
    1.3800    2.3027   -1.3339 H   0  0  0  0  0  0  0  0  0  0  0  0
    3.2524   -0.5159   -0.5054 H   0  0  0  0  0  0  0  0  0  0  0  0
   -4.2032   -1.2225    1.6774 H   0  0  0  0  0  0  0  0  0  0  0  0
    2.5953   -2.6090   -1.7644 H   0  0  0  0  0  0  0  0  0  0  0  0
   -3.8345    1.3915    2.9305 H   0  0  0  0  0  0  0  0  0  0  0  0
   -5.0242    0.3385    3.1646 H   0  0  0  0  0  0  0  0  0  0  0  0
    3.7171    1.3972   -2.5306 H   0  0  0  0  0  0  0  0  0  0  0  0
   -1.4312   -2.2056    3.5878 H   0  0  0  0  0  0  0  0  0  0  0  0
    4.8172   -0.3079   -4.4155 H   0  0  0  0  0  0  0  0  0  0  0  0
  1  2  1  0  0  0  0
  1  3  1  0  0  0  0
  2  4  1  0  0  0  0
  3  5  1  0  0  0  0
  4  6  1  0  0  0  0
  4  7  1  0  0  0  0
  5  8  1  0  0  0  0
  7  9  1  0  0  0  0
  7 10  1  0  0  0  0
  8 11  1  0  0  0  0
  8 12  1  0  0  0  0
 10 13  2  0  0  0  0
 10 14  1  0  0  0  0
 12 15  2  0  0  0  0
 12 16  1  0  0  0  0
 14 17  1  0  0  0  0
  2 18  1  0  0  0  0
  2 19  1  0  0  0  0
  3 20  1  0  0  0  0
  3 21  1  0  0  0  0
  4 22  1  0  0  0  0
  5 23  1  0  0  0  0
  5 24  1  0  0  0  0
  6 25  1  0  0  0  0
  7 26  1  0  0  0  0
  8 27  1  0  0  0  0
  9 28  1  0  0  0  0
 11 29  1  0  0  0  0
 11 30  1  0  0  0  0
 14 31  1  0  0  0  0
 16 32  1  0  0  0  0
 17 33  1  0  0  0  0
M  END
>  <Molecule Name>
Active 6

>  <Molecule ChEMBL ID>
CHEMBL207406

>  <Molecule Name 2>


>  <Molecule Max Phase>
None

>  <Molecular Weight>
268.29

>  <#RO5 Violations>
1

>  <AlogP>
-2.25

>  <Compound Key>
10

>  <Smiles>
N[C@@H](CCSC[C@@H](O)[C@@H](O)C(=O)NO)C(=O)O

>  <Standard Type>
Ki

>  <Standard Relation>
'='

>  <Standard Value>
720

>  <Standard Units>
nM

>  <pChEMBL Value>
6.14

>  <Data Validity Comment>


>  <Comment>


>  <Uo Units>
UO_0000065

>  <Ligand Efficiency BEI>
22.9

>  <Ligand Efficiency LE>
0.49

>  <Ligand Efficiency LLE>
8.39

>  <Ligand Efficiency SEI>
4.01

>  <Potential Duplicate>
0

>  <Assay ChEMBL ID>
CHEMBL870015

>  <Assay Description>
Inhibition of ferrous substituted Bacillus subtilis LuxS

>  <Assay Type>
B

>  <BAO Format ID>
BAO_0000357

>  <BAO Label>
single protein format

>  <Assay Organism>
Bacillus subtilis

>  <Assay Tissue ChEMBL ID>
None

>  <Assay Tissue Name>
None

>  <Assay Cell Type>
None

>  <Assay Subcellular Fraction>
None

>  <Assay Parameters>


>  <Assay Variant Accession>


>  <Assay Variant Mutation>


>  <Target ChEMBL ID>
CHEMBL5171

>  <Target Name>
S-ribosylhomocysteine lyase

>  <Target Organism>
Bacillus subtilis (strain 168)

>  <Target Type>
SINGLE PROTEIN

>  <Document ChEMBL ID>
CHEMBL1147680

>  <Source ID>
1

>  <Source Description>
Scientific Literature

>  <Document Journal>
J Med Chem

>  <Document Year>
2006

>  <Cell ChEMBL ID>
None

>  <MMFF94 Energy>
98.916

$$$$
Compound 7
Actelion Java MolfileCreator 1.0

 33 33  0  0  1  0  0  0  0  0999 V2000
   -4.7060   -0.3836   -1.1512 Br  0  0  0  0  0  0  0  0  0  0  0  0
   -3.1487   -0.1521    0.0193 C   0  0  0  0  0  0  0  0  0  0  0  0
   -3.4443   -0.4827    1.4673 C   0  0  0  0  0  0  0  0  0  0  0  0
   -2.0566   -1.1589   -0.3462 C   0  0  0  0  0  0  0  0  0  0  0  0
   -4.7228   -0.0820    1.9330 O   0  0  0  0  0  0  0  0  0  0  0  0
   -3.1953   -1.9875    1.5272 C   0  0  0  0  0  0  0  0  0  0  0  0
   -2.1531   -2.2577    0.5964 O   0  0  0  0  0  0  0  0  0  0  0  0
   -0.6625   -0.5176   -0.2228 C   0  0  0  0  0  0  0  0  0  0  0  0
   -4.3597   -2.6950    1.1364 O   0  0  0  0  0  0  0  0  0  0  0  0
    0.6422   -1.6244   -0.8719 S   0  0  0  0  0  0  0  0  0  0  0  0
    2.1274   -0.7550   -0.2662 C   0  0  0  0  0  0  0  0  0  0  0  0
    2.3612    0.5664   -0.9947 C   0  0  0  0  0  0  0  0  0  0  0  0
    3.6979    1.2186   -0.6131 C   0  0  0  0  0  0  0  0  0  0  0  0
    3.7096    1.7438    0.7684 N   0  0  0  0  0  0  0  0  0  0  0  0
    3.9899    2.3484   -1.6073 C   0  0  0  0  0  0  0  0  0  0  0  0
    4.5771    2.2402   -2.6717 O   0  0  0  0  0  0  0  0  0  0  0  0
    3.4545    3.5365   -1.2403 O   0  0  0  0  0  0  0  0  0  0  0  0
   -2.8679    0.8943   -0.1316 H   0  0  0  0  0  0  0  0  0  0  0  0
   -2.6919    0.0186    2.0888 H   0  0  0  0  0  0  0  0  0  0  0  0
   -2.1882   -1.5665   -1.3552 H   0  0  0  0  0  0  0  0  0  0  0  0
   -5.3528   -0.7169    1.5313 H   0  0  0  0  0  0  0  0  0  0  0  0
   -2.9093   -2.3156    2.5313 H   0  0  0  0  0  0  0  0  0  0  0  0
   -0.4366   -0.3062    0.8274 H   0  0  0  0  0  0  0  0  0  0  0  0
   -0.6298    0.4137   -0.7957 H   0  0  0  0  0  0  0  0  0  0  0  0
   -4.1165   -3.6337    1.2147 H   0  0  0  0  0  0  0  0  0  0  0  0
    2.9783   -1.4242   -0.4319 H   0  0  0  0  0  0  0  0  0  0  0  0
    2.0317   -0.6125    0.8143 H   0  0  0  0  0  0  0  0  0  0  0  0
    2.3519    0.3901   -2.0789 H   0  0  0  0  0  0  0  0  0  0  0  0
    1.5435    1.2694   -0.7914 H   0  0  0  0  0  0  0  0  0  0  0  0
    4.5173    0.4963   -0.7003 H   0  0  0  0  0  0  0  0  0  0  0  0
    3.1598    2.6069    0.7855 H   0  0  0  0  0  0  0  0  0  0  0  0
    3.2737    1.0957    1.4173 H   0  0  0  0  0  0  0  0  0  0  0  0
    3.7356    4.1439   -1.9568 H   0  0  0  0  0  0  0  0  0  0  0  0
  1  2  1  0  0  0  0
  2  3  1  0  0  0  0
  2  4  1  0  0  0  0
  3  5  1  0  0  0  0
  3  6  1  0  0  0  0
  4  7  1  0  0  0  0
  4  8  1  0  0  0  0
  6  9  1  0  0  0  0
  8 10  1  0  0  0  0
 10 11  1  0  0  0  0
 11 12  1  0  0  0  0
 12 13  1  0  0  0  0
 13 14  1  0  0  0  0
 13 15  1  0  0  0  0
 15 16  2  0  0  0  0
 15 17  1  0  0  0  0
  6  7  1  0  0  0  0
  2 18  1  0  0  0  0
  3 19  1  0  0  0  0
  4 20  1  0  0  0  0
  5 21  1  0  0  0  0
  6 22  1  0  0  0  0
  8 23  1  0  0  0  0
  8 24  1  0  0  0  0
  9 25  1  0  0  0  0
 11 26  1  0  0  0  0
 11 27  1  0  0  0  0
 12 28  1  0  0  0  0
 12 29  1  0  0  0  0
 13 30  1  0  0  0  0
 14 31  1  0  0  0  0
 14 32  1  0  0  0  0
 17 33  1  0  0  0  0
M  END
>  <Molecule Name>
Active 7

>  <Molecule ChEMBL ID>
CHEMBL594964

>  <Molecule Name 2>


>  <Molecule Max Phase>
None

>  <Molecular Weight>
330.2

>  <#RO5 Violations>
0

>  <AlogP>
-0.64

>  <Compound Key>
23

>  <Smiles>
N[C@@H](CCSC[C@H]1OC(O)[C@H](O)[C@@H]1Br)C(=O)O

>  <Standard Type>
Ki

>  <Standard Relation>
'='

>  <Standard Value>
1400

>  <Standard Units>
nM

>  <pChEMBL Value>
5.85

>  <Data Validity Comment>


>  <Comment>


>  <Uo Units>
UO_0000065

>  <Ligand Efficiency BEI>
17.73

>  <Ligand Efficiency LE>
0.47

>  <Ligand Efficiency LLE>
6.49

>  <Ligand Efficiency SEI>
5.18

>  <Potential Duplicate>
0

>  <Assay ChEMBL ID>
CHEMBL1071831

>  <Assay Description>
Inhibition of Bacillus subtilis LuxS assessed as enzyme-inhibitor dissociation constant

>  <Assay Type>
B

>  <BAO Format ID>
BAO_0000357

>  <BAO Label>
single protein format

>  <Assay Organism>
Bacillus subtilis

>  <Assay Tissue ChEMBL ID>
None

>  <Assay Tissue Name>
None

>  <Assay Cell Type>
None

>  <Assay Subcellular Fraction>
None

>  <Assay Parameters>


>  <Assay Variant Accession>


>  <Assay Variant Mutation>


>  <Target ChEMBL ID>
CHEMBL5171

>  <Target Name>
S-ribosylhomocysteine lyase

>  <Target Organism>
Bacillus subtilis (strain 168)

>  <Target Type>
SINGLE PROTEIN

>  <Document ChEMBL ID>
CHEMBL1152553

>  <Source ID>
1

>  <Source Description>
Scientific Literature

>  <Document Journal>
Bioorg Med Chem

>  <Document Year>
2009

>  <Cell ChEMBL ID>
None

>  <MMFF94 Energy>
73.589

$$$$
Compound 8
Actelion Java MolfileCreator 1.0

 33 33  0  0  1  0  0  0  0  0999 V2000
    2.3448   -1.5941   -0.1875 S   0  0  0  0  0  0  0  0  0  0  0  0
    2.0947    0.1126   -0.8216 C   0  0  0  0  0  0  0  0  0  0  0  0
    0.6736   -2.0032    0.4305 C   0  0  0  0  0  0  0  0  0  0  0  0
    1.3518    0.1665   -2.1678 C   0  0  0  0  0  0  0  0  0  0  0  0
    0.3293   -1.2653    1.7230 C   0  0  0  0  0  0  0  0  0  0  0  0
   -0.0413   -0.1483   -1.9841 O   0  0  0  0  0  0  0  0  0  0  0  0
    1.3478    1.5601   -2.7812 C   0  0  0  0  0  0  0  0  0  0  0  0
   -1.0911   -1.5927    2.1999 C   0  0  0  0  0  0  0  0  0  0  0  0
   -0.7707    1.0710   -1.8632 C   0  0  0  0  0  0  0  0  0  0  0  0
    2.5149    2.2090   -2.5607 F   0  0  0  0  0  0  0  0  0  0  0  0
    0.2004    2.2371   -2.0670 C   0  0  0  0  0  0  0  0  0  0  0  0
   -2.1016   -0.9261    1.3301 N   0  0  0  0  0  0  0  0  0  0  0  0
   -1.2533   -1.1652    3.6658 C   0  0  0  0  0  0  0  0  0  0  0  0
   -1.3210    1.1430   -0.5618 O   0  0  0  0  0  0  0  0  0  0  0  0
   -0.3764    3.2900   -2.8399 O   0  0  0  0  0  0  0  0  0  0  0  0
   -0.6512   -1.6247    4.6224 O   0  0  0  0  0  0  0  0  0  0  0  0
   -2.1521   -0.1711    3.8458 O   0  0  0  0  0  0  0  0  0  0  0  0
    3.1004    0.5274   -0.9456 H   0  0  0  0  0  0  0  0  0  0  0  0
    1.5913    0.7035   -0.0526 H   0  0  0  0  0  0  0  0  0  0  0  0
    0.6757   -3.0808    0.6306 H   0  0  0  0  0  0  0  0  0  0  0  0
   -0.0713   -1.8437   -0.3493 H   0  0  0  0  0  0  0  0  0  0  0  0
    1.7898   -0.5527   -2.8685 H   0  0  0  0  0  0  0  0  0  0  0  0
    0.4264   -0.1799    1.6027 H   0  0  0  0  0  0  0  0  0  0  0  0
    1.0514   -1.5505    2.4994 H   0  0  0  0  0  0  0  0  0  0  0  0
    1.1716    1.5247   -3.8620 H   0  0  0  0  0  0  0  0  0  0  0  0
   -1.2773   -2.6720    2.1617 H   0  0  0  0  0  0  0  0  0  0  0  0
   -1.5891    1.0740   -2.5903 H   0  0  0  0  0  0  0  0  0  0  0  0
    0.5341    2.6739   -1.1187 H   0  0  0  0  0  0  0  0  0  0  0  0
   -2.1026    0.0641    1.6115 H   0  0  0  0  0  0  0  0  0  0  0  0
   -3.0227   -1.2451    1.6435 H   0  0  0  0  0  0  0  0  0  0  0  0
   -1.7167    0.2581   -0.4157 H   0  0  0  0  0  0  0  0  0  0  0  0
   -1.0722    3.6902   -2.2866 H   0  0  0  0  0  0  0  0  0  0  0  0
   -2.1256   -0.0065    4.8127 H   0  0  0  0  0  0  0  0  0  0  0  0
  1  2  1  0  0  0  0
  1  3  1  0  0  0  0
  2  4  1  0  0  0  0
  3  5  1  0  0  0  0
  4  6  1  0  0  0  0
  4  7  1  0  0  0  0
  5  8  1  0  0  0  0
  6  9  1  0  0  0  0
  7 10  1  0  0  0  0
  7 11  1  0  0  0  0
  8 12  1  0  0  0  0
  8 13  1  0  0  0  0
  9 14  1  0  0  0  0
 11 15  1  0  0  0  0
 13 16  2  0  0  0  0
 13 17  1  0  0  0  0
  9 11  1  0  0  0  0
  2 18  1  0  0  0  0
  2 19  1  0  0  0  0
  3 20  1  0  0  0  0
  3 21  1  0  0  0  0
  4 22  1  0  0  0  0
  5 23  1  0  0  0  0
  5 24  1  0  0  0  0
  7 25  1  0  0  0  0
  8 26  1  0  0  0  0
  9 27  1  0  0  0  0
 11 28  1  0  0  0  0
 12 29  1  0  0  0  0
 12 30  1  0  0  0  0
 14 31  1  0  0  0  0
 15 32  1  0  0  0  0
 17 33  1  0  0  0  0
M  END
>  <Molecule Name>
Active 8

>  <Molecule ChEMBL ID>
CHEMBL593447

>  <Molecule Name 2>


>  <Molecule Max Phase>
None

>  <Molecular Weight>
269.29

>  <#RO5 Violations>
0

>  <AlogP>
-1.06

>  <Compound Key>
21a

>  <Smiles>
N[C@@H](CCSC[C@H]1OC(O)[C@H](O)[C@H]1F)C(=O)O

>  <Standard Type>
Ki

>  <Standard Relation>
'='

>  <Standard Value>
2800

>  <Standard Units>
nM

>  <pChEMBL Value>
5.55

>  <Data Validity Comment>


>  <Comment>


>  <Uo Units>
UO_0000065

>  <Ligand Efficiency BEI>
20.62

>  <Ligand Efficiency LE>
0.45

>  <Ligand Efficiency LLE>
6.61

>  <Ligand Efficiency SEI>
4.91

>  <Potential Duplicate>
0

>  <Assay ChEMBL ID>
CHEMBL1071831

>  <Assay Description>
Inhibition of Bacillus subtilis LuxS assessed as enzyme-inhibitor dissociation constant

>  <Assay Type>
B

>  <BAO Format ID>
BAO_0000357

>  <BAO Label>
single protein format

>  <Assay Organism>
Bacillus subtilis

>  <Assay Tissue ChEMBL ID>
None

>  <Assay Tissue Name>
None

>  <Assay Cell Type>
None

>  <Assay Subcellular Fraction>
None

>  <Assay Parameters>


>  <Assay Variant Accession>


>  <Assay Variant Mutation>


>  <Target ChEMBL ID>
CHEMBL5171

>  <Target Name>
S-ribosylhomocysteine lyase

>  <Target Organism>
Bacillus subtilis (strain 168)

>  <Target Type>
SINGLE PROTEIN

>  <Document ChEMBL ID>
CHEMBL1152553

>  <Source ID>
1

>  <Source Description>
Scientific Literature

>  <Document Journal>
Bioorg Med Chem

>  <Document Year>
2009

>  <Cell ChEMBL ID>
None

>  <MMFF94 Energy>
70.052

$$$$
Compound 9
Actelion Java MolfileCreator 1.0

 34 34  0  0  1  0  0  0  0  0999 V2000
    0.2820   -1.7869    0.3760 S   0  0  0  0  0  0  0  0  0  0  0  0
   -0.6316   -0.2698   -0.0813 C   0  0  0  0  0  0  0  0  0  0  0  0
    1.4560   -1.0824    1.5832 C   0  0  0  0  0  0  0  0  0  0  0  0
   -1.8850   -0.5946   -0.9005 C   0  0  0  0  0  0  0  0  0  0  0  0
    2.5850   -0.3210    0.8906 C   0  0  0  0  0  0  0  0  0  0  0  0
   -2.9139   -1.1466   -0.0547 O   0  0  0  0  0  0  0  0  0  0  0  0
   -2.4993    0.6633   -1.5237 C   0  0  0  0  0  0  0  0  0  0  0  0
    3.6249    0.1969    1.8914 C   0  0  0  0  0  0  0  0  0  0  0  0
   -4.1768   -0.6068   -0.4688 C   0  0  0  0  0  0  0  0  0  0  0  0
   -1.9108    1.0416   -2.7644 O   0  0  0  0  0  0  0  0  0  0  0  0
   -3.9328    0.2159   -1.7351 C   0  0  0  0  0  0  0  0  0  0  0  0
    3.0246    1.2233    2.7764 N   0  0  0  0  0  0  0  0  0  0  0  0
    4.8220    0.7934    1.1432 C   0  0  0  0  0  0  0  0  0  0  0  0
   -5.1110   -1.6424   -0.7003 O   0  0  0  0  0  0  0  0  0  0  0  0
   -4.0184   -0.6234   -2.9044 O   0  0  0  0  0  0  0  0  0  0  0  0
    5.1163    1.9778    1.0802 O   0  0  0  0  0  0  0  0  0  0  0  0
    5.5788   -0.1358    0.5294 O   0  0  0  0  0  0  0  0  0  0  0  0
   -0.9146    0.2514    0.8393 H   0  0  0  0  0  0  0  0  0  0  0  0
    0.0431    0.3656   -0.6620 H   0  0  0  0  0  0  0  0  0  0  0  0
    1.8725   -1.9198    2.1533 H   0  0  0  0  0  0  0  0  0  0  0  0
    0.9062   -0.4507    2.2879 H   0  0  0  0  0  0  0  0  0  0  0  0
   -1.6487   -1.3248   -1.6857 H   0  0  0  0  0  0  0  0  0  0  0  0
    3.0802   -0.9838    0.1687 H   0  0  0  0  0  0  0  0  0  0  0  0
    2.1869    0.5211    0.3099 H   0  0  0  0  0  0  0  0  0  0  0  0
   -2.4694    1.5116   -0.8292 H   0  0  0  0  0  0  0  0  0  0  0  0
    3.9971   -0.6171    2.5239 H   0  0  0  0  0  0  0  0  0  0  0  0
   -4.5390    0.0260    0.3482 H   0  0  0  0  0  0  0  0  0  0  0  0
   -0.9828    1.2864   -2.6001 H   0  0  0  0  0  0  0  0  0  0  0  0
   -4.6450    1.0345   -1.8681 H   0  0  0  0  0  0  0  0  0  0  0  0
    2.8730    2.0700    2.2205 H   0  0  0  0  0  0  0  0  0  0  0  0
    3.7324    1.5081    3.4579 H   0  0  0  0  0  0  0  0  0  0  0  0
   -4.9645   -1.8893   -1.6354 H   0  0  0  0  0  0  0  0  0  0  0  0
   -3.4471   -0.1844   -3.5685 H   0  0  0  0  0  0  0  0  0  0  0  0
    6.3022    0.3752    0.1084 H   0  0  0  0  0  0  0  0  0  0  0  0
  1  2  1  0  0  0  0
  1  3  1  0  0  0  0
  2  4  1  0  0  0  0
  3  5  1  0  0  0  0
  4  6  1  0  0  0  0
  4  7  1  0  0  0  0
  5  8  1  0  0  0  0
  6  9  1  0  0  0  0
  7 10  1  0  0  0  0
  7 11  1  0  0  0  0
  8 12  1  0  0  0  0
  8 13  1  0  0  0  0
  9 14  1  0  0  0  0
 11 15  1  0  0  0  0
 13 16  2  0  0  0  0
 13 17  1  0  0  0  0
  9 11  1  0  0  0  0
  2 18  1  0  0  0  0
  2 19  1  0  0  0  0
  3 20  1  0  0  0  0
  3 21  1  0  0  0  0
  4 22  1  0  0  0  0
  5 23  1  0  0  0  0
  5 24  1  0  0  0  0
  7 25  1  0  0  0  0
  8 26  1  0  0  0  0
  9 27  1  0  0  0  0
 10 28  1  0  0  0  0
 11 29  1  0  0  0  0
 12 30  1  0  0  0  0
 12 31  1  0  0  0  0
 14 32  1  0  0  0  0
 15 33  1  0  0  0  0
 17 34  1  0  0  0  0
M  END
>  <Molecule Name>
Active 9

>  <Molecule ChEMBL ID>
CHEMBL593446

>  <Molecule Name 2>


>  <Molecule Max Phase>
None

>  <Molecular Weight>
267.3

>  <#RO5 Violations>
0

>  <AlogP>
-2.04

>  <Compound Key>
16

>  <Smiles>
N[C@@H](CCSC[C@H]1OC(O)[C@H](O)[C@@H]1O)C(=O)O

>  <Standard Type>
Ki

>  <Standard Relation>
'='

>  <Standard Value>
4200

>  <Standard Units>
nM

>  <pChEMBL Value>
5.38

>  <Data Validity Comment>


>  <Comment>


>  <Uo Units>
UO_0000065

>  <Ligand Efficiency BEI>
20.12

>  <Ligand Efficiency LE>
0.43

>  <Ligand Efficiency LLE>
7.42

>  <Ligand Efficiency SEI>
4.04

>  <Potential Duplicate>
0

>  <Assay ChEMBL ID>
CHEMBL1071830

>  <Assay Description>
Inhibition of Bacillus subtilis LuxS

>  <Assay Type>
B

>  <BAO Format ID>
BAO_0000357

>  <BAO Label>
single protein format

>  <Assay Organism>
Bacillus subtilis

>  <Assay Tissue ChEMBL ID>
None

>  <Assay Tissue Name>
None

>  <Assay Cell Type>
None

>  <Assay Subcellular Fraction>
None

>  <Assay Parameters>


>  <Assay Variant Accession>


>  <Assay Variant Mutation>


>  <Target ChEMBL ID>
CHEMBL5171

>  <Target Name>
S-ribosylhomocysteine lyase

>  <Target Organism>
Bacillus subtilis (strain 168)

>  <Target Type>
SINGLE PROTEIN

>  <Document ChEMBL ID>
CHEMBL1152553

>  <Source ID>
1

>  <Source Description>
Scientific Literature

>  <Document Journal>
Bioorg Med Chem

>  <Document Year>
2009

>  <Cell ChEMBL ID>
None

>  <MMFF94 Energy>
88.588

$$$$
Compound 10
Actelion Java MolfileCreator 1.0

 33 33  0  0  1  0  0  0  0  0999 V2000
    0.2811   -0.1874    1.8751 S   0  0  0  0  0  0  0  0  0  0  0  0
   -0.4124   -1.0560    0.4196 C   0  0  0  0  0  0  0  0  0  0  0  0
    2.0210   -0.0470    1.3492 C   0  0  0  0  0  0  0  0  0  0  0  0
   -1.9326   -1.1792    0.5241 C   0  0  0  0  0  0  0  0  0  0  0  0
    2.2218    1.1022    0.3627 C   0  0  0  0  0  0  0  0  0  0  0  0
   -2.5735    0.0816    0.2378 O   0  0  0  0  0  0  0  0  0  0  0  0
   -2.4962   -2.1894   -0.4715 C   0  0  0  0  0  0  0  0  0  0  0  0
    3.6910    1.2597   -0.0525 C   0  0  0  0  0  0  0  0  0  0  0  0
   -3.6757   -0.1735   -0.6373 C   0  0  0  0  0  0  0  0  0  0  0  0
   -1.8276   -2.1164   -1.6540 F   0  0  0  0  0  0  0  0  0  0  0  0
   -3.9030   -1.6885   -0.6799 C   0  0  0  0  0  0  0  0  0  0  0  0
    4.5308    1.8530    1.0113 N   0  0  0  0  0  0  0  0  0  0  0  0
    3.7549    2.1155   -1.3231 C   0  0  0  0  0  0  0  0  0  0  0  0
   -4.8327    0.5051   -0.1869 O   0  0  0  0  0  0  0  0  0  0  0  0
   -4.7631   -2.1040    0.3947 O   0  0  0  0  0  0  0  0  0  0  0  0
    3.5932    1.7180   -2.4661 O   0  0  0  0  0  0  0  0  0  0  0  0
    3.9411    3.4329   -1.0768 O   0  0  0  0  0  0  0  0  0  0  0  0
   -0.1473   -0.4981   -0.4829 H   0  0  0  0  0  0  0  0  0  0  0  0
    0.0471   -2.0486    0.3795 H   0  0  0  0  0  0  0  0  0  0  0  0
    2.3489   -0.9998    0.9210 H   0  0  0  0  0  0  0  0  0  0  0  0
    2.6094    0.1210    2.2562 H   0  0  0  0  0  0  0  0  0  0  0  0
   -2.2398   -1.4701    1.5371 H   0  0  0  0  0  0  0  0  0  0  0  0
    1.8594    2.0450    0.7950 H   0  0  0  0  0  0  0  0  0  0  0  0
    1.6169    0.9277   -0.5356 H   0  0  0  0  0  0  0  0  0  0  0  0
   -2.4325   -3.2161   -0.1005 H   0  0  0  0  0  0  0  0  0  0  0  0
    4.1239    0.2854   -0.3065 H   0  0  0  0  0  0  0  0  0  0  0  0
   -3.4003    0.2100   -1.6255 H   0  0  0  0  0  0  0  0  0  0  0  0
   -4.3585   -1.9959   -1.6256 H   0  0  0  0  0  0  0  0  0  0  0  0
    4.2019    1.5765    1.9331 H   0  0  0  0  0  0  0  0  0  0  0  0
    4.4121    2.8705    0.9649 H   0  0  0  0  0  0  0  0  0  0  0  0
   -5.2069   -0.0855    0.4949 H   0  0  0  0  0  0  0  0  0  0  0  0
   -5.0266   -3.0251    0.2165 H   0  0  0  0  0  0  0  0  0  0  0  0
    3.9517    3.8370   -1.9696 H   0  0  0  0  0  0  0  0  0  0  0  0
  1  2  1  0  0  0  0
  1  3  1  0  0  0  0
  2  4  1  0  0  0  0
  3  5  1  0  0  0  0
  4  6  1  0  0  0  0
  4  7  1  0  0  0  0
  5  8  1  0  0  0  0
  6  9  1  0  0  0  0
  7 10  1  0  0  0  0
  7 11  1  0  0  0  0
  8 12  1  0  0  0  0
  8 13  1  0  0  0  0
  9 14  1  0  0  0  0
 11 15  1  0  0  0  0
 13 16  2  0  0  0  0
 13 17  1  0  0  0  0
  9 11  1  0  0  0  0
  2 18  1  0  0  0  0
  2 19  1  0  0  0  0
  3 20  1  0  0  0  0
  3 21  1  0  0  0  0
  4 22  1  0  0  0  0
  5 23  1  0  0  0  0
  5 24  1  0  0  0  0
  7 25  1  0  0  0  0
  8 26  1  0  0  0  0
  9 27  1  0  0  0  0
 11 28  1  0  0  0  0
 12 29  1  0  0  0  0
 12 30  1  0  0  0  0
 14 31  1  0  0  0  0
 15 32  1  0  0  0  0
 17 33  1  0  0  0  0
M  END
>  <Molecule Name>
Active 10

>  <Molecule ChEMBL ID>
CHEMBL593447

>  <Molecule Name 2>


>  <Molecule Max Phase>
None

>  <Molecular Weight>
269.29

>  <#RO5 Violations>
0

>  <AlogP>
-1.06

>  <Compound Key>
21a

>  <Smiles>
N[C@@H](CCSC[C@H]1OC(O)[C@H](O)[C@H]1F)C(=O)O

>  <Standard Type>
Ki

>  <Standard Relation>
'='

>  <Standard Value>
7700

>  <Standard Units>
nM

>  <pChEMBL Value>
5.11

>  <Data Validity Comment>


>  <Comment>


>  <Uo Units>
UO_0000065

>  <Ligand Efficiency BEI>
18.99

>  <Ligand Efficiency LE>
0.41

>  <Ligand Efficiency LLE>
6.17

>  <Ligand Efficiency SEI>
4.52

>  <Potential Duplicate>
0

>  <Assay ChEMBL ID>
CHEMBL1071830

>  <Assay Description>
Inhibition of Bacillus subtilis LuxS

>  <Assay Type>
B

>  <BAO Format ID>
BAO_0000357

>  <BAO Label>
single protein format

>  <Assay Organism>
Bacillus subtilis

>  <Assay Tissue ChEMBL ID>
None

>  <Assay Tissue Name>
None

>  <Assay Cell Type>
None

>  <Assay Subcellular Fraction>
None

>  <Assay Parameters>


>  <Assay Variant Accession>


>  <Assay Variant Mutation>


>  <Target ChEMBL ID>
CHEMBL5171

>  <Target Name>
S-ribosylhomocysteine lyase

>  <Target Organism>
Bacillus subtilis (strain 168)

>  <Target Type>
SINGLE PROTEIN

>  <Document ChEMBL ID>
CHEMBL1152553

>  <Source ID>
1

>  <Source Description>
Scientific Literature

>  <Document Journal>
Bioorg Med Chem

>  <Document Year>
2009

>  <Cell ChEMBL ID>
None

>  <MMFF94 Energy>
76.658

$$$$
