Compound 1
 OpenBabel07082414563D

 33 32  0  0  1  0  0  0  0  0999 V2000
   -1.8619    1.1169    0.8376 S   0  0  0  0  0  0  0  0  0  0  0  0
   -0.6754   -0.0936    1.5435 C   0  0  0  0  0  0  0  0  0  0  0  0
   -1.0284    1.4991   -0.7429 C   0  0  0  0  0  0  0  0  0  0  0  0
   -0.8862   -1.4928    0.9416 C   0  0  2  0  0  0  0  0  0  0  0  0
    0.0951    2.5167   -0.5473 C   0  0  0  0  0  0  0  0  0  0  0  0
   -2.2163   -1.9542    1.2574 O   0  0  0  0  0  0  0  0  0  0  0  0
    0.1662   -2.4832    1.4814 C   0  0  1  0  0  0  0  0  0  0  0  0
    0.7917    2.8572   -1.8698 C   0  0  2  0  0  0  0  0  0  0  0  0
    0.1477   -2.5225    2.9103 O   0  0  0  0  0  0  0  0  0  0  0  0
    0.0369   -3.9108    0.9304 C   0  0  0  0  0  0  0  0  0  0  0  0
    1.5002    1.6651   -2.3958 N   0  3  0  0  0  0  0  0  0  0  0  0
    1.7861    4.0056   -1.6667 C   0  0  0  0  0  0  0  0  0  0  0  0
    0.9745   -4.7111    0.9932 O   0  0  0  0  0  0  0  0  0  0  0  0
   -1.1911   -4.2758    0.4439 N   0  0  0  0  0  0  0  0  0  0  0  0
    3.0033    3.9264   -1.7384 O   0  0  0  0  0  0  0  0  0  0  0  0
    1.1886    5.1832   -1.4031 O   0  5  0  0  0  0  0  0  0  0  0  0
   -1.3447   -5.6479    0.1322 O   0  0  0  0  0  0  0  0  0  0  0  0
   -0.8169   -0.1442    2.6029 H   0  0  0  0  0  0  0  0  0  0  0  0
    0.3178    0.2297    1.3111 H   0  0  0  0  0  0  0  0  0  0  0  0
   -1.7464    1.9001   -1.4274 H   0  0  0  0  0  0  0  0  0  0  0  0
   -0.6023    0.5957   -1.1267 H   0  0  0  0  0  0  0  0  0  0  0  0
   -0.7727   -1.4354   -0.1208 H   0  0  0  0  0  0  0  0  0  0  0  0
    0.8170    2.1097    0.1296 H   0  0  0  0  0  0  0  0  0  0  0  0
   -0.3346    3.4155   -0.1568 H   0  0  0  0  0  0  0  0  0  0  0  0
   -2.3202   -2.0066    2.2204 H   0  0  0  0  0  0  0  0  0  0  0  0
    1.1037   -2.1042    1.1316 H   0  0  0  0  0  0  0  0  0  0  0  0
    0.0493    3.1627   -2.5773 H   0  0  0  0  0  0  0  0  0  0  0  0
   -0.7067   -2.8676    3.2132 H   0  0  0  0  0  0  0  0  0  0  0  0
    2.2098    1.3683   -1.7259 H   0  0  0  0  0  0  0  0  0  0  0  0
    1.9464    1.8987   -3.2828 H   0  0  0  0  0  0  0  0  0  0  0  0
    0.8316    0.9085   -2.5404 H   0  0  0  0  0  0  0  0  0  0  0  0
   -1.9196   -3.6255    0.3192 H   0  0  0  0  0  0  0  0  0  0  0  0
   -0.5181   -6.1176    0.3244 H   0  0  0  0  0  0  0  0  0  0  0  0
  1  2  1  0  0  0  0
  1  3  1  0  0  0  0
  2  4  1  0  0  0  0
  2 18  1  0  0  0  0
  2 19  1  0  0  0  0
  3  5  1  0  0  0  0
  3 20  1  0  0  0  0
  3 21  1  0  0  0  0
  4  6  1  0  0  0  0
  4  7  1  0  0  0  0
  4 22  1  6  0  0  0
  5  8  1  0  0  0  0
  5 23  1  0  0  0  0
  5 24  1  0  0  0  0
  6 25  1  0  0  0  0
  7  9  1  0  0  0  0
  7 10  1  0  0  0  0
  7 26  1  6  0  0  0
  8 11  1  0  0  0  0
  8 12  1  0  0  0  0
  8 27  1  6  0  0  0
  9 28  1  0  0  0  0
 10 13  2  0  0  0  0
 10 14  1  0  0  0  0
 11 29  1  0  0  0  0
 11 30  1  0  0  0  0
 11 31  1  0  0  0  0
 12 15  2  0  0  0  0
 12 16  1  0  0  0  0
 14 17  1  0  0  0  0
 14 32  1  0  0  0  0
 17 33  1  0  0  0  0
M  CHG  2  11   1  16  -1
M  END
>  <Molecule Name>
Active 1

>  <Molecule ChEMBL ID>
CHEMBL208091

>  <Molecule Name 2>


>  <Molecule Max Phase>
None

>  <Molecular Weight>
268.29

>  <#RO5 Violations>
1

>  <AlogP>
-2.25

>  <Compound Key>
11

>  <Smiles>
N[C@@H](CCSC[C@H](O)[C@@H](O)C(=O)NO)C(=O)O

>  <Standard Type>
Ki

>  <Standard Relation>
'='

>  <Standard Value>
370

>  <Standard Units>
nM

>  <pChEMBL Value>
6.43

>  <Data Validity Comment>


>  <Comment>


>  <Uo Units>
UO_0000065

>  <Ligand Efficiency BEI>
23.97

>  <Ligand Efficiency LE>
0.52

>  <Ligand Efficiency LLE>
8.68

>  <Ligand Efficiency SEI>
4.2

>  <Potential Duplicate>
0

>  <Assay ChEMBL ID>
CHEMBL861693

>  <Assay Description>
Inhibition of cobalt substituted Bacillus subtilis LuxS

>  <Assay Type>
B

>  <BAO Format ID>
BAO_0000357

>  <BAO Label>
single protein format

>  <Assay Organism>
Bacillus subtilis

>  <Assay Tissue ChEMBL ID>
None

>  <Assay Tissue Name>
None

>  <Assay Cell Type>
None

>  <Assay Subcellular Fraction>
None

>  <Assay Parameters>


>  <Assay Variant Accession>


>  <Assay Variant Mutation>


>  <Target ChEMBL ID>
CHEMBL5171

>  <Target Name>
S-ribosylhomocysteine lyase

>  <Target Organism>
Bacillus subtilis (strain 168)

>  <Target Type>
SINGLE PROTEIN

>  <Document ChEMBL ID>
CHEMBL1147680

>  <Source ID>
1

>  <Source Description>
Scientific Literature

>  <Document Journal>
J Med Chem

>  <Document Year>
2006

>  <Cell ChEMBL ID>
None

>  <MMFF94 Energy>
102.76

$$$$
Compound 2
 OpenBabel07082414563D

 34 34  0  0  1  0  0  0  0  0999 V2000
   -0.7526    0.5644    2.1646 S   0  0  0  0  0  0  0  0  0  0  0  0
   -1.0229   -0.7864    0.9503 C   0  0  0  0  0  0  0  0  0  0  0  0
    0.1749    1.7842    1.1679 C   0  0  0  0  0  0  0  0  0  0  0  0
   -1.8769   -0.3967   -0.2603 C   0  0  1  0  0  0  0  0  0  0  0  0
    1.5153    1.3055    0.6090 C   0  0  0  0  0  0  0  0  0  0  0  0
   -1.0915    0.3249   -1.2292 O   0  0  0  0  0  0  0  0  0  0  0  0
   -2.4209   -1.6382   -0.9780 C   0  0  1  0  0  0  0  0  0  0  0  0
    2.5229    0.7833    1.6413 C   0  0  2  0  0  0  0  0  0  0  0  0
   -1.2982   -0.2656   -2.5148 C   0  0  2  0  0  0  0  0  0  0  0  0
   -3.6737   -2.0756   -0.4589 O   0  0  0  0  0  0  0  0  0  0  0  0
   -2.5340   -1.1604   -2.4133 C   0  0  2  0  0  0  0  0  0  0  0  0
    2.8477    1.8277    2.6382 N   0  3  0  0  0  0  0  0  0  0  0  0
    3.8059    0.3164    0.9354 C   0  0  0  0  0  0  0  0  0  0  0  0
   -0.1555   -1.0514   -2.8064 O   0  0  0  0  0  0  0  0  0  0  0  0
   -3.7500   -0.4153   -2.5779 O   0  0  0  0  0  0  0  0  0  0  0  0
    3.9273   -0.0207   -0.2317 O   0  0  0  0  0  0  0  0  0  0  0  0
    4.8650    0.2343    1.7768 O   0  5  0  0  0  0  0  0  0  0  0  0
   -1.5087   -1.5956    1.4544 H   0  0  0  0  0  0  0  0  0  0  0  0
   -0.0580   -1.0473    0.5684 H   0  0  0  0  0  0  0  0  0  0  0  0
    0.3626    2.6378    1.7851 H   0  0  0  0  0  0  0  0  0  0  0  0
   -0.4386    1.9898    0.3157 H   0  0  0  0  0  0  0  0  0  0  0  0
   -2.6775    0.2061    0.1145 H   0  0  0  0  0  0  0  0  0  0  0  0
    1.9685    2.1272    0.0949 H   0  0  0  0  0  0  0  0  0  0  0  0
    1.2856    0.4708   -0.0198 H   0  0  0  0  0  0  0  0  0  0  0  0
   -1.7924   -2.4958   -0.8585 H   0  0  0  0  0  0  0  0  0  0  0  0
    2.0794   -0.0451    2.1530 H   0  0  0  0  0  0  0  0  0  0  0  0
   -1.4421    0.4672   -3.2810 H   0  0  0  0  0  0  0  0  0  0  0  0
   -4.3202   -1.3554   -0.5247 H   0  0  0  0  0  0  0  0  0  0  0  0
   -2.5687   -1.9282   -3.1577 H   0  0  0  0  0  0  0  0  0  0  0  0
    3.2723    2.6268    2.1674 H   0  0  0  0  0  0  0  0  0  0  0  0
    3.5012    1.4509    3.3247 H   0  0  0  0  0  0  0  0  0  0  0  0
    1.9935    2.1252    3.1095 H   0  0  0  0  0  0  0  0  0  0  0  0
   -0.0313   -1.7131   -2.1081 H   0  0  0  0  0  0  0  0  0  0  0  0
   -3.7800    0.3026   -1.9263 H   0  0  0  0  0  0  0  0  0  0  0  0
  1  2  1  0  0  0  0
  1  3  1  0  0  0  0
  2  4  1  0  0  0  0
  2 18  1  0  0  0  0
  2 19  1  0  0  0  0
  3  5  1  0  0  0  0
  3 20  1  0  0  0  0
  3 21  1  0  0  0  0
  4  6  1  0  0  0  0
  4  7  1  0  0  0  0
  4 22  1  1  0  0  0
  5  8  1  0  0  0  0
  5 23  1  0  0  0  0
  5 24  1  0  0  0  0
  6  9  1  0  0  0  0
  7 10  1  0  0  0  0
  7 11  1  0  0  0  0
  7 25  1  1  0  0  0
  8 12  1  0  0  0  0
  8 13  1  0  0  0  0
  8 26  1  1  0  0  0
  9 14  1  0  0  0  0
  9 11  1  0  0  0  0
  9 27  1  6  0  0  0
 10 28  1  0  0  0  0
 11 15  1  0  0  0  0
 11 29  1  6  0  0  0
 12 30  1  0  0  0  0
 12 31  1  0  0  0  0
 12 32  1  0  0  0  0
 13 16  2  0  0  0  0
 13 17  1  0  0  0  0
 14 33  1  0  0  0  0
 15 34  1  0  0  0  0
M  CHG  2  12   1  17  -1
M  END
>  <Molecule Name>
Active 2

>  <Molecule ChEMBL ID>
CHEMBL593446

>  <Molecule Name 2>


>  <Molecule Max Phase>
None

>  <Molecular Weight>
267.3

>  <#RO5 Violations>
0

>  <AlogP>
-2.04

>  <Compound Key>
16

>  <Smiles>
N[C@@H](CCSC[C@H]1OC(O)[C@H](O)[C@@H]1O)C(=O)O

>  <Standard Type>
Ki

>  <Standard Relation>
'='

>  <Standard Value>
430

>  <Standard Units>
nM

>  <pChEMBL Value>
6.37

>  <Data Validity Comment>


>  <Comment>


>  <Uo Units>
UO_0000065

>  <Ligand Efficiency BEI>
23.82

>  <Ligand Efficiency LE>
0.51

>  <Ligand Efficiency LLE>
8.41

>  <Ligand Efficiency SEI>
4.78

>  <Potential Duplicate>
0

>  <Assay ChEMBL ID>
CHEMBL1071831

>  <Assay Description>
Inhibition of Bacillus subtilis LuxS assessed as enzyme-inhibitor dissociation constant

>  <Assay Type>
B

>  <BAO Format ID>
BAO_0000357

>  <BAO Label>
single protein format

>  <Assay Organism>
Bacillus subtilis

>  <Assay Tissue ChEMBL ID>
None

>  <Assay Tissue Name>
None

>  <Assay Cell Type>
None

>  <Assay Subcellular Fraction>
None

>  <Assay Parameters>


>  <Assay Variant Accession>


>  <Assay Variant Mutation>


>  <Target ChEMBL ID>
CHEMBL5171

>  <Target Name>
S-ribosylhomocysteine lyase

>  <Target Organism>
Bacillus subtilis (strain 168)

>  <Target Type>
SINGLE PROTEIN

>  <Document ChEMBL ID>
CHEMBL1152553

>  <Source ID>
1

>  <Source Description>
Scientific Literature

>  <Document Journal>
Bioorg Med Chem

>  <Document Year>
2009

>  <Cell ChEMBL ID>
None

>  <MMFF94 Energy>
85.906

$$$$
Compound 3
 OpenBabel07082414563D

 33 32  0  0  1  0  0  0  0  0999 V2000
    1.2101    0.4653    1.3032 S   0  0  0  0  0  0  0  0  0  0  0  0
   -0.1929   -0.5757    0.7523 C   0  0  0  0  0  0  0  0  0  0  0  0
    0.3087    1.9924    1.7511 C   0  0  0  0  0  0  0  0  0  0  0  0
    0.2938   -2.0101    0.4913 C   0  0  2  0  0  0  0  0  0  0  0  0
   -0.2792    2.7522    0.5607 C   0  0  0  0  0  0  0  0  0  0  0  0
    1.2561   -1.9871   -0.5845 O   0  0  0  0  0  0  0  0  0  0  0  0
   -0.8743   -2.9006    0.0385 C   0  0  1  0  0  0  0  0  0  0  0  0
    0.7641    3.3502   -0.3922 C   0  0  2  0  0  0  0  0  0  0  0  0
   -1.1931   -2.6032   -1.3287 O   0  0  0  0  0  0  0  0  0  0  0  0
   -0.5449   -4.3884    0.2085 C   0  0  0  0  0  0  0  0  0  0  0  0
    1.5239    4.4257    0.2883 N   0  3  0  0  0  0  0  0  0  0  0  0
    0.0754    3.9134   -1.6413 C   0  0  0  0  0  0  0  0  0  0  0  0
    0.2482   -4.8473    1.0274 O   0  0  0  0  0  0  0  0  0  0  0  0
   -1.3034   -5.1983   -0.6117 N   0  0  0  0  0  0  0  0  0  0  0  0
    0.0316    5.0874   -1.9773 O   0  0  0  0  0  0  0  0  0  0  0  0
   -0.5001    2.9629   -2.4036 O   0  5  0  0  0  0  0  0  0  0  0  0
   -0.9459   -6.5680   -0.6072 O   0  0  0  0  0  0  0  0  0  0  0  0
   -0.6035   -0.1704   -0.1489 H   0  0  0  0  0  0  0  0  0  0  0  0
   -0.9427   -0.5905    1.5155 H   0  0  0  0  0  0  0  0  0  0  0  0
    0.9870    2.6437    2.2617 H   0  0  0  0  0  0  0  0  0  0  0  0
   -0.5185    1.6911    2.3593 H   0  0  0  0  0  0  0  0  0  0  0  0
    0.7196   -2.3941    1.3947 H   0  0  0  0  0  0  0  0  0  0  0  0
   -0.8824    3.5508    0.9392 H   0  0  0  0  0  0  0  0  0  0  0  0
   -0.8375    2.0391   -0.0091 H   0  0  0  0  0  0  0  0  0  0  0  0
    0.8374   -1.6345   -1.3853 H   0  0  0  0  0  0  0  0  0  0  0  0
   -1.7233   -2.6933    0.6558 H   0  0  0  0  0  0  0  0  0  0  0  0
    1.4427    2.5763   -0.6846 H   0  0  0  0  0  0  0  0  0  0  0  0
   -0.4235   -2.7911   -1.8884 H   0  0  0  0  0  0  0  0  0  0  0  0
    0.8838    5.1680    0.5705 H   0  0  0  0  0  0  0  0  0  0  0  0
    2.2232    4.8044   -0.3504 H   0  0  0  0  0  0  0  0  0  0  0  0
    1.9876    4.0448    1.1131 H   0  0  0  0  0  0  0  0  0  0  0  0
   -2.0413   -4.8482   -1.1614 H   0  0  0  0  0  0  0  0  0  0  0  0
   -0.1991   -6.7053   -0.0036 H   0  0  0  0  0  0  0  0  0  0  0  0
  1  2  1  0  0  0  0
  1  3  1  0  0  0  0
  2  4  1  0  0  0  0
  2 18  1  0  0  0  0
  2 19  1  0  0  0  0
  3  5  1  0  0  0  0
  3 20  1  0  0  0  0
  3 21  1  0  0  0  0
  4  6  1  0  0  0  0
  4  7  1  0  0  0  0
  4 22  1  1  0  0  0
  5  8  1  0  0  0  0
  5 23  1  0  0  0  0
  5 24  1  0  0  0  0
  6 25  1  0  0  0  0
  7  9  1  0  0  0  0
  7 10  1  0  0  0  0
  7 26  1  1  0  0  0
  8 11  1  0  0  0  0
  8 12  1  0  0  0  0
  8 27  1  6  0  0  0
  9 28  1  0  0  0  0
 10 13  2  0  0  0  0
 10 14  1  0  0  0  0
 11 29  1  0  0  0  0
 11 30  1  0  0  0  0
 11 31  1  0  0  0  0
 12 15  2  0  0  0  0
 12 16  1  0  0  0  0
 14 17  1  0  0  0  0
 14 32  1  0  0  0  0
 17 33  1  0  0  0  0
M  CHG  2  11   1  16  -1
M  END
>  <Molecule Name>
Active 3

>  <Molecule ChEMBL ID>
CHEMBL208091

>  <Molecule Name 2>


>  <Molecule Max Phase>
None

>  <Molecular Weight>
268.29

>  <#RO5 Violations>
1

>  <AlogP>
-2.25

>  <Compound Key>
11

>  <Smiles>
N[C@@H](CCSC[C@H](O)[C@@H](O)C(=O)NO)C(=O)O

>  <Standard Type>
Ki

>  <Standard Relation>
'='

>  <Standard Value>
430

>  <Standard Units>
nM

>  <pChEMBL Value>
6.37

>  <Data Validity Comment>


>  <Comment>


>  <Uo Units>
UO_0000065

>  <Ligand Efficiency BEI>
23.73

>  <Ligand Efficiency LE>
0.51

>  <Ligand Efficiency LLE>
8.62

>  <Ligand Efficiency SEI>
4.16

>  <Potential Duplicate>
0

>  <Assay ChEMBL ID>
CHEMBL870015

>  <Assay Description>
Inhibition of ferrous substituted Bacillus subtilis LuxS

>  <Assay Type>
B

>  <BAO Format ID>
BAO_0000357

>  <BAO Label>
single protein format

>  <Assay Organism>
Bacillus subtilis

>  <Assay Tissue ChEMBL ID>
None

>  <Assay Tissue Name>
None

>  <Assay Cell Type>
None

>  <Assay Subcellular Fraction>
None

>  <Assay Parameters>


>  <Assay Variant Accession>


>  <Assay Variant Mutation>


>  <Target ChEMBL ID>
CHEMBL5171

>  <Target Name>
S-ribosylhomocysteine lyase

>  <Target Organism>
Bacillus subtilis (strain 168)

>  <Target Type>
SINGLE PROTEIN

>  <Document ChEMBL ID>
CHEMBL1147680

>  <Source ID>
1

>  <Source Description>
Scientific Literature

>  <Document Journal>
J Med Chem

>  <Document Year>
2006

>  <Cell ChEMBL ID>
None

>  <MMFF94 Energy>
99.935

$$$$
Compound 4
 OpenBabel07082414563D

 33 33  0  0  1  0  0  0  0  0999 V2000
   -0.9379    1.3132   -0.8441 S   0  0  0  0  0  0  0  0  0  0  0  0
   -0.9116   -0.2442   -1.8124 C   0  0  0  0  0  0  0  0  0  0  0  0
    0.6982    1.2085   -0.0342 C   0  0  0  0  0  0  0  0  0  0  0  0
   -1.5128   -1.4594   -1.0960 C   0  0  1  0  0  0  0  0  0  0  0  0
    1.8028    1.7201   -0.9613 C   0  0  0  0  0  0  0  0  0  0  0  0
   -0.6948   -1.8183    0.0369 O   0  0  0  0  0  0  0  0  0  0  0  0
   -2.9422   -1.2728   -0.5999 C   0  0  1  0  0  0  0  0  0  0  0  0
    3.2069    1.6799   -0.3415 C   0  0  2  0  0  0  0  0  0  0  0  0
   -1.5619   -2.0962    1.1382 C   0  0  1  0  0  0  0  0  0  0  0  0
   -3.6791   -2.3821   -0.9232 F   0  0  0  0  0  0  0  0  0  0  0  0
   -2.8093   -1.2402    0.9085 C   0  0  2  0  0  0  0  0  0  0  0  0
    3.6377    0.2890   -0.0758 N   0  3  0  0  0  0  0  0  0  0  0  0
    3.2936    2.5211    0.9365 C   0  0  0  0  0  0  0  0  0  0  0  0
   -1.8736   -3.4817    1.1629 O   0  0  0  0  0  0  0  0  0  0  0  0
   -3.9615   -1.7596    1.5762 O   0  0  0  0  0  0  0  0  0  0  0  0
    3.5515    2.1085    2.0571 O   0  0  0  0  0  0  0  0  0  0  0  0
    3.0618    3.8307    0.7260 O   0  5  0  0  0  0  0  0  0  0  0  0
    0.1066   -0.4696   -2.0520 H   0  0  0  0  0  0  0  0  0  0  0  0
   -1.5212   -0.0720   -2.6748 H   0  0  0  0  0  0  0  0  0  0  0  0
    0.8986    0.1884    0.2191 H   0  0  0  0  0  0  0  0  0  0  0  0
    0.6826    1.8172    0.8457 H   0  0  0  0  0  0  0  0  0  0  0  0
   -1.5376   -2.2288   -1.8392 H   0  0  0  0  0  0  0  0  0  0  0  0
    1.5796    2.7332   -1.2234 H   0  0  0  0  0  0  0  0  0  0  0  0
    1.8205    1.0691   -1.8103 H   0  0  0  0  0  0  0  0  0  0  0  0
   -3.4079   -0.4034   -1.0149 H   0  0  0  0  0  0  0  0  0  0  0  0
    3.8743    2.1091   -1.0593 H   0  0  0  0  0  0  0  0  0  0  0  0
   -1.1148   -1.8646    2.0823 H   0  0  0  0  0  0  0  0  0  0  0  0
   -2.7268   -0.2500    1.3056 H   0  0  0  0  0  0  0  0  0  0  0  0
    3.0113   -0.1362    0.6077 H   0  0  0  0  0  0  0  0  0  0  0  0
    4.5895    0.2920    0.2909 H   0  0  0  0  0  0  0  0  0  0  0  0
    3.6092   -0.2473   -0.9430 H   0  0  0  0  0  0  0  0  0  0  0  0
   -2.2833   -3.7360    0.3213 H   0  0  0  0  0  0  0  0  0  0  0  0
   -4.1242   -2.6689    1.2803 H   0  0  0  0  0  0  0  0  0  0  0  0
  1  2  1  0  0  0  0
  1  3  1  0  0  0  0
  2  4  1  0  0  0  0
  2 18  1  0  0  0  0
  2 19  1  0  0  0  0
  3  5  1  0  0  0  0
  3 20  1  0  0  0  0
  3 21  1  0  0  0  0
  4  6  1  0  0  0  0
  4  7  1  0  0  0  0
  4 22  1  6  0  0  0
  5  8  1  0  0  0  0
  5 23  1  0  0  0  0
  5 24  1  0  0  0  0
  6  9  1  0  0  0  0
  7 10  1  0  0  0  0
  7 11  1  0  0  0  0
  7 25  1  6  0  0  0
  8 12  1  0  0  0  0
  8 13  1  0  0  0  0
  8 26  1  6  0  0  0
  9 14  1  0  0  0  0
  9 11  1  0  0  0  0
  9 27  1  1  0  0  0
 11 15  1  0  0  0  0
 11 28  1  1  0  0  0
 12 29  1  0  0  0  0
 12 30  1  0  0  0  0
 12 31  1  0  0  0  0
 13 16  2  0  0  0  0
 13 17  1  0  0  0  0
 14 32  1  0  0  0  0
 15 33  1  0  0  0  0
M  CHG  2  12   1  17  -1
M  END
>  <Molecule Name>
Active 4

>  <Molecule ChEMBL ID>
CHEMBL595659

>  <Molecule Name 2>


>  <Molecule Max Phase>
None

>  <Molecular Weight>
269.29

>  <#RO5 Violations>
0

>  <AlogP>
-1.06

>  <Compound Key>
22

>  <Smiles>
N[C@@H](CCSC[C@H]1OC(O)[C@H](O)[C@@H]1F)C(=O)O

>  <Standard Type>
Ki

>  <Standard Relation>
'='

>  <Standard Value>
700

>  <Standard Units>
nM

>  <pChEMBL Value>
6.16

>  <Data Validity Comment>


>  <Comment>


>  <Uo Units>
UO_0000065

>  <Ligand Efficiency BEI>
22.86

>  <Ligand Efficiency LE>
0.49

>  <Ligand Efficiency LLE>
7.21

>  <Ligand Efficiency SEI>
5.45

>  <Potential Duplicate>
0

>  <Assay ChEMBL ID>
CHEMBL1071831

>  <Assay Description>
Inhibition of Bacillus subtilis LuxS assessed as enzyme-inhibitor dissociation constant

>  <Assay Type>
B

>  <BAO Format ID>
BAO_0000357

>  <BAO Label>
single protein format

>  <Assay Organism>
Bacillus subtilis

>  <Assay Tissue ChEMBL ID>
None

>  <Assay Tissue Name>
None

>  <Assay Cell Type>
None

>  <Assay Subcellular Fraction>
None

>  <Assay Parameters>


>  <Assay Variant Accession>


>  <Assay Variant Mutation>


>  <Target ChEMBL ID>
CHEMBL5171

>  <Target Name>
S-ribosylhomocysteine lyase

>  <Target Organism>
Bacillus subtilis (strain 168)

>  <Target Type>
SINGLE PROTEIN

>  <Document ChEMBL ID>
CHEMBL1152553

>  <Source ID>
1

>  <Source Description>
Scientific Literature

>  <Document Journal>
Bioorg Med Chem

>  <Document Year>
2009

>  <Cell ChEMBL ID>
None

>  <MMFF94 Energy>
73.913

$$$$
Compound 5
 OpenBabel07082414563D

 33 32  0  0  1  0  0  0  0  0999 V2000
   -0.8380   -1.0243    1.0243 S   0  0  0  0  0  0  0  0  0  0  0  0
    0.9030   -0.5491    1.3618 C   0  0  0  0  0  0  0  0  0  0  0  0
   -0.7935   -1.0262   -0.8013 C   0  0  0  0  0  0  0  0  0  0  0  0
    1.1281    0.9569    1.1431 C   0  0  1  0  0  0  0  0  0  0  0  0
   -2.0965   -1.5406   -1.4244 C   0  0  0  0  0  0  0  0  0  0  0  0
    0.3043    1.6875    2.0767 O   0  0  0  0  0  0  0  0  0  0  0  0
    2.5789    1.3880    1.4090 C   0  0  1  0  0  0  0  0  0  0  0  0
   -3.3700   -0.7612   -1.0681 C   0  0  2  0  0  0  0  0  0  0  0  0
    2.9368    1.1060    2.7673 O   0  0  0  0  0  0  0  0  0  0  0  0
    3.5548    0.7420    0.4259 C   0  0  0  0  0  0  0  0  0  0  0  0
   -4.5314   -1.4914   -1.6358 N   0  3  0  0  0  0  0  0  0  0  0  0
   -3.3630    0.6772   -1.6102 C   0  0  0  0  0  0  0  0  0  0  0  0
    3.2369    0.2733   -0.6651 O   0  0  0  0  0  0  0  0  0  0  0  0
    4.8597    0.7740    0.8685 N   0  0  0  0  0  0  0  0  0  0  0  0
   -2.3987    1.3455   -1.9438 O   0  0  0  0  0  0  0  0  0  0  0  0
   -4.6033    1.2240   -1.6393 O   0  5  0  0  0  0  0  0  0  0  0  0
    5.7820    0.0503    0.0742 O   0  0  0  0  0  0  0  0  0  0  0  0
    1.5464   -1.0960    0.7047 H   0  0  0  0  0  0  0  0  0  0  0  0
    1.1212   -0.7765    2.3843 H   0  0  0  0  0  0  0  0  0  0  0  0
    0.0111   -1.6537   -1.1234 H   0  0  0  0  0  0  0  0  0  0  0  0
   -0.6591   -0.0144   -1.1224 H   0  0  0  0  0  0  0  0  0  0  0  0
    0.8867    1.1613    0.1209 H   0  0  0  0  0  0  0  0  0  0  0  0
   -2.2333   -2.5531   -1.1065 H   0  0  0  0  0  0  0  0  0  0  0  0
   -1.9749   -1.4243   -2.4811 H   0  0  0  0  0  0  0  0  0  0  0  0
    0.5667    1.4638    2.9833 H   0  0  0  0  0  0  0  0  0  0  0  0
    2.6444    2.4447    1.2542 H   0  0  0  0  0  0  0  0  0  0  0  0
   -3.4273   -0.6908   -0.0020 H   0  0  0  0  0  0  0  0  0  0  0  0
    2.8824    0.1503    2.9243 H   0  0  0  0  0  0  0  0  0  0  0  0
   -4.4409   -1.5375   -2.6507 H   0  0  0  0  0  0  0  0  0  0  0  0
   -5.3926   -1.0017   -1.3931 H   0  0  0  0  0  0  0  0  0  0  0  0
   -4.5586   -2.4367   -1.2536 H   0  0  0  0  0  0  0  0  0  0  0  0
    5.1309    1.2643    1.6780 H   0  0  0  0  0  0  0  0  0  0  0  0
    5.3156   -0.3576   -0.6721 H   0  0  0  0  0  0  0  0  0  0  0  0
  1  2  1  0  0  0  0
  1  3  1  0  0  0  0
  2  4  1  0  0  0  0
  2 18  1  0  0  0  0
  2 19  1  0  0  0  0
  3  5  1  0  0  0  0
  3 20  1  0  0  0  0
  3 21  1  0  0  0  0
  4  6  1  0  0  0  0
  4  7  1  0  0  0  0
  4 22  1  6  0  0  0
  5  8  1  0  0  0  0
  5 23  1  0  0  0  0
  5 24  1  0  0  0  0
  6 25  1  0  0  0  0
  7  9  1  0  0  0  0
  7 10  1  0  0  0  0
  7 26  1  6  0  0  0
  8 11  1  0  0  0  0
  8 12  1  0  0  0  0
  8 27  1  1  0  0  0
  9 28  1  0  0  0  0
 10 13  2  0  0  0  0
 10 14  1  0  0  0  0
 11 29  1  0  0  0  0
 11 30  1  0  0  0  0
 11 31  1  0  0  0  0
 12 15  2  0  0  0  0
 12 16  1  0  0  0  0
 14 17  1  0  0  0  0
 14 32  1  0  0  0  0
 17 33  1  0  0  0  0
M  CHG  2  11   1  16  -1
M  END
>  <Molecule Name>
Active 5

>  <Molecule ChEMBL ID>
CHEMBL207406

>  <Molecule Name 2>


>  <Molecule Max Phase>
None

>  <Molecular Weight>
268.29

>  <#RO5 Violations>
1

>  <AlogP>
-2.25

>  <Compound Key>
10

>  <Smiles>
N[C@@H](CCSC[C@@H](O)[C@@H](O)C(=O)NO)C(=O)O

>  <Standard Type>
Ki

>  <Standard Relation>
'='

>  <Standard Value>
720

>  <Standard Units>
nM

>  <pChEMBL Value>
6.14

>  <Data Validity Comment>


>  <Comment>


>  <Uo Units>
UO_0000065

>  <Ligand Efficiency BEI>
22.9

>  <Ligand Efficiency LE>
0.49

>  <Ligand Efficiency LLE>
8.39

>  <Ligand Efficiency SEI>
4.01

>  <Potential Duplicate>
0

>  <Assay ChEMBL ID>
CHEMBL861693

>  <Assay Description>
Inhibition of cobalt substituted Bacillus subtilis LuxS

>  <Assay Type>
B

>  <BAO Format ID>
BAO_0000357

>  <BAO Label>
single protein format

>  <Assay Organism>
Bacillus subtilis

>  <Assay Tissue ChEMBL ID>
None

>  <Assay Tissue Name>
None

>  <Assay Cell Type>
None

>  <Assay Subcellular Fraction>
None

>  <Assay Parameters>


>  <Assay Variant Accession>


>  <Assay Variant Mutation>


>  <Target ChEMBL ID>
CHEMBL5171

>  <Target Name>
S-ribosylhomocysteine lyase

>  <Target Organism>
Bacillus subtilis (strain 168)

>  <Target Type>
SINGLE PROTEIN

>  <Document ChEMBL ID>
CHEMBL1147680

>  <Source ID>
1

>  <Source Description>
Scientific Literature

>  <Document Journal>
J Med Chem

>  <Document Year>
2006

>  <Cell ChEMBL ID>
None

>  <MMFF94 Energy>
98.962

$$$$
Compound 6
 OpenBabel07082414563D

 33 32  0  0  1  0  0  0  0  0999 V2000
   -0.7444    1.5823   -0.4652 S   0  0  0  0  0  0  0  0  0  0  0  0
    0.4955    0.2343   -0.3527 C   0  0  0  0  0  0  0  0  0  0  0  0
   -1.7550    1.1849    1.0046 C   0  0  0  0  0  0  0  0  0  0  0  0
    1.5192    0.3688   -1.4929 C   0  0  1  0  0  0  0  0  0  0  0  0
   -2.7142    0.0240    0.7371 C   0  0  0  0  0  0  0  0  0  0  0  0
    2.1253    1.6755   -1.4559 O   0  0  0  0  0  0  0  0  0  0  0  0
    2.6204   -0.7006   -1.3822 C   0  0  1  0  0  0  0  0  0  0  0  0
   -3.5433   -0.3938    1.9608 C   0  0  2  0  0  0  0  0  0  0  0  0
    2.0348   -1.9976   -1.2419 O   0  0  0  0  0  0  0  0  0  0  0  0
    3.5344   -0.6681   -2.6152 C   0  0  0  0  0  0  0  0  0  0  0  0
   -4.4114    0.7081    2.4337 N   0  3  0  0  0  0  0  0  0  0  0  0
   -2.6558   -0.9006    3.1038 C   0  0  0  0  0  0  0  0  0  0  0  0
    3.7359   -1.6699   -3.3055 O   0  0  0  0  0  0  0  0  0  0  0  0
    4.1585    0.5317   -2.8537 N   0  0  0  0  0  0  0  0  0  0  0  0
   -2.5881   -0.4286    4.2287 O   0  0  0  0  0  0  0  0  0  0  0  0
   -1.9170   -1.9747    2.7675 O   0  5  0  0  0  0  0  0  0  0  0  0
    4.8921    0.6050   -4.0620 O   0  0  0  0  0  0  0  0  0  0  0  0
    0.0001   -0.7109   -0.4302 H   0  0  0  0  0  0  0  0  0  0  0  0
    1.0035    0.3001    0.5867 H   0  0  0  0  0  0  0  0  0  0  0  0
   -2.3243    2.0488    1.2774 H   0  0  0  0  0  0  0  0  0  0  0  0
   -1.0939    0.8950    1.7944 H   0  0  0  0  0  0  0  0  0  0  0  0
    1.0000    0.2314   -2.4183 H   0  0  0  0  0  0  0  0  0  0  0  0
   -2.1403   -0.8197    0.4152 H   0  0  0  0  0  0  0  0  0  0  0  0
   -3.4064    0.3586   -0.0071 H   0  0  0  0  0  0  0  0  0  0  0  0
    2.5933    1.7911   -0.6142 H   0  0  0  0  0  0  0  0  0  0  0  0
    3.2110   -0.4876   -0.5158 H   0  0  0  0  0  0  0  0  0  0  0  0
   -4.1700   -1.2015    1.6449 H   0  0  0  0  0  0  0  0  0  0  0  0
    1.4978   -2.1963   -2.0249 H   0  0  0  0  0  0  0  0  0  0  0  0
   -3.8321    1.4897    2.7401 H   0  0  0  0  0  0  0  0  0  0  0  0
   -4.9814    0.3810    3.2138 H   0  0  0  0  0  0  0  0  0  0  0  0
   -5.0188    1.0128    1.6730 H   0  0  0  0  0  0  0  0  0  0  0  0
    4.0997    1.2889   -2.2273 H   0  0  0  0  0  0  0  0  0  0  0  0
    4.8247   -0.2403   -4.5330 H   0  0  0  0  0  0  0  0  0  0  0  0
  1  2  1  0  0  0  0
  1  3  1  0  0  0  0
  2  4  1  0  0  0  0
  2 18  1  0  0  0  0
  2 19  1  0  0  0  0
  3  5  1  0  0  0  0
  3 20  1  0  0  0  0
  3 21  1  0  0  0  0
  4  6  1  0  0  0  0
  4  7  1  0  0  0  0
  4 22  1  6  0  0  0
  5  8  1  0  0  0  0
  5 23  1  0  0  0  0
  5 24  1  0  0  0  0
  6 25  1  0  0  0  0
  7  9  1  0  0  0  0
  7 10  1  0  0  0  0
  7 26  1  1  0  0  0
  8 11  1  0  0  0  0
  8 12  1  0  0  0  0
  8 27  1  6  0  0  0
  9 28  1  0  0  0  0
 10 13  2  0  0  0  0
 10 14  1  0  0  0  0
 11 29  1  0  0  0  0
 11 30  1  0  0  0  0
 11 31  1  0  0  0  0
 12 15  2  0  0  0  0
 12 16  1  0  0  0  0
 14 17  1  0  0  0  0
 14 32  1  0  0  0  0
 17 33  1  0  0  0  0
M  CHG  2  11   1  16  -1
M  END
>  <Molecule Name>
Active 6

>  <Molecule ChEMBL ID>
CHEMBL207406

>  <Molecule Name 2>


>  <Molecule Max Phase>
None

>  <Molecular Weight>
268.29

>  <#RO5 Violations>
1

>  <AlogP>
-2.25

>  <Compound Key>
10

>  <Smiles>
N[C@@H](CCSC[C@@H](O)[C@@H](O)C(=O)NO)C(=O)O

>  <Standard Type>
Ki

>  <Standard Relation>
'='

>  <Standard Value>
720

>  <Standard Units>
nM

>  <pChEMBL Value>
6.14

>  <Data Validity Comment>


>  <Comment>


>  <Uo Units>
UO_0000065

>  <Ligand Efficiency BEI>
22.9

>  <Ligand Efficiency LE>
0.49

>  <Ligand Efficiency LLE>
8.39

>  <Ligand Efficiency SEI>
4.01

>  <Potential Duplicate>
0

>  <Assay ChEMBL ID>
CHEMBL870015

>  <Assay Description>
Inhibition of ferrous substituted Bacillus subtilis LuxS

>  <Assay Type>
B

>  <BAO Format ID>
BAO_0000357

>  <BAO Label>
single protein format

>  <Assay Organism>
Bacillus subtilis

>  <Assay Tissue ChEMBL ID>
None

>  <Assay Tissue Name>
None

>  <Assay Cell Type>
None

>  <Assay Subcellular Fraction>
None

>  <Assay Parameters>


>  <Assay Variant Accession>


>  <Assay Variant Mutation>


>  <Target ChEMBL ID>
CHEMBL5171

>  <Target Name>
S-ribosylhomocysteine lyase

>  <Target Organism>
Bacillus subtilis (strain 168)

>  <Target Type>
SINGLE PROTEIN

>  <Document ChEMBL ID>
CHEMBL1147680

>  <Source ID>
1

>  <Source Description>
Scientific Literature

>  <Document Journal>
J Med Chem

>  <Document Year>
2006

>  <Cell ChEMBL ID>
None

>  <MMFF94 Energy>
98.916

$$$$
Compound 7
 OpenBabel07082414563D

 33 33  0  0  1  0  0  0  0  0999 V2000
   -4.7060   -0.3836   -1.1512 Br  0  0  0  0  0  0  0  0  0  0  0  0
   -3.1487   -0.1521    0.0193 C   0  0  1  0  0  0  0  0  0  0  0  0
   -3.4443   -0.4827    1.4673 C   0  0  1  0  0  0  0  0  0  0  0  0
   -2.0566   -1.1589   -0.3462 C   0  0  2  0  0  0  0  0  0  0  0  0
   -4.7228   -0.0820    1.9330 O   0  0  0  0  0  0  0  0  0  0  0  0
   -3.1953   -1.9875    1.5272 C   0  0  2  0  0  0  0  0  0  0  0  0
   -2.1531   -2.2577    0.5964 O   0  0  0  0  0  0  0  0  0  0  0  0
   -0.6625   -0.5176   -0.2228 C   0  0  0  0  0  0  0  0  0  0  0  0
   -4.3597   -2.6950    1.1364 O   0  0  0  0  0  0  0  0  0  0  0  0
    0.6422   -1.6244   -0.8719 S   0  0  0  0  0  0  0  0  0  0  0  0
    2.1274   -0.7550   -0.2662 C   0  0  0  0  0  0  0  0  0  0  0  0
    2.3612    0.5664   -0.9947 C   0  0  0  0  0  0  0  0  0  0  0  0
    3.6979    1.2186   -0.6131 C   0  0  2  0  0  0  0  0  0  0  0  0
    3.7096    1.7438    0.7684 N   0  3  0  0  0  0  0  0  0  0  0  0
    3.9899    2.3484   -1.6073 C   0  0  0  0  0  0  0  0  0  0  0  0
    4.5771    2.2402   -2.6717 O   0  0  0  0  0  0  0  0  0  0  0  0
    3.4545    3.5365   -1.2403 O   0  5  0  0  0  0  0  0  0  0  0  0
   -2.8654    0.8722   -0.1049 H   0  0  0  0  0  0  0  0  0  0  0  0
   -2.8237    0.0716    2.1400 H   0  0  0  0  0  0  0  0  0  0  0  0
   -2.1869   -1.4896   -1.3554 H   0  0  0  0  0  0  0  0  0  0  0  0
   -5.4103   -0.5160    1.4039 H   0  0  0  0  0  0  0  0  0  0  0  0
   -2.9368   -2.2916    2.5200 H   0  0  0  0  0  0  0  0  0  0  0  0
   -0.4637   -0.3127    0.8084 H   0  0  0  0  0  0  0  0  0  0  0  0
   -0.6551    0.3847   -0.7978 H   0  0  0  0  0  0  0  0  0  0  0  0
   -4.6108   -2.4326    0.2370 H   0  0  0  0  0  0  0  0  0  0  0  0
    2.9795   -1.3851   -0.4139 H   0  0  0  0  0  0  0  0  0  0  0  0
    1.9792   -0.5361    0.7706 H   0  0  0  0  0  0  0  0  0  0  0  0
    1.5675    1.2400   -0.7472 H   0  0  0  0  0  0  0  0  0  0  0  0
    2.3879    0.3593   -2.0441 H   0  0  0  0  0  0  0  0  0  0  0  0
    4.4565    0.4652   -0.6556 H   0  0  0  0  0  0  0  0  0  0  0  0
    2.9995    2.4700    0.8621 H   0  0  0  0  0  0  0  0  0  0  0  0
    4.6277    2.1374    0.9748 H   0  0  0  0  0  0  0  0  0  0  0  0
    3.5097    0.9865    1.4218 H   0  0  0  0  0  0  0  0  0  0  0  0
  1  2  1  0  0  0  0
  2  3  1  0  0  0  0
  2  4  1  0  0  0  0
  2 18  1  6  0  0  0
  3  5  1  0  0  0  0
  3  6  1  0  0  0  0
  3 19  1  1  0  0  0
  4  7  1  0  0  0  0
  4  8  1  0  0  0  0
  4 20  1  6  0  0  0
  5 21  1  0  0  0  0
  6  9  1  0  0  0  0
  6  7  1  0  0  0  0
  6 22  1  1  0  0  0
  8 10  1  0  0  0  0
  8 23  1  0  0  0  0
  8 24  1  0  0  0  0
  9 25  1  0  0  0  0
 10 11  1  0  0  0  0
 11 12  1  0  0  0  0
 11 26  1  0  0  0  0
 11 27  1  0  0  0  0
 12 13  1  0  0  0  0
 12 28  1  0  0  0  0
 12 29  1  0  0  0  0
 13 14  1  0  0  0  0
 13 15  1  0  0  0  0
 13 30  1  6  0  0  0
 14 31  1  0  0  0  0
 14 32  1  0  0  0  0
 14 33  1  0  0  0  0
 15 16  2  0  0  0  0
 15 17  1  0  0  0  0
M  CHG  2  14   1  17  -1
M  END
>  <Molecule Name>
Active 7

>  <Molecule ChEMBL ID>
CHEMBL594964

>  <Molecule Name 2>


>  <Molecule Max Phase>
None

>  <Molecular Weight>
330.2

>  <#RO5 Violations>
0

>  <AlogP>
-0.64

>  <Compound Key>
23

>  <Smiles>
N[C@@H](CCSC[C@H]1OC(O)[C@H](O)[C@@H]1Br)C(=O)O

>  <Standard Type>
Ki

>  <Standard Relation>
'='

>  <Standard Value>
1400

>  <Standard Units>
nM

>  <pChEMBL Value>
5.85

>  <Data Validity Comment>


>  <Comment>


>  <Uo Units>
UO_0000065

>  <Ligand Efficiency BEI>
17.73

>  <Ligand Efficiency LE>
0.47

>  <Ligand Efficiency LLE>
6.49

>  <Ligand Efficiency SEI>
5.18

>  <Potential Duplicate>
0

>  <Assay ChEMBL ID>
CHEMBL1071831

>  <Assay Description>
Inhibition of Bacillus subtilis LuxS assessed as enzyme-inhibitor dissociation constant

>  <Assay Type>
B

>  <BAO Format ID>
BAO_0000357

>  <BAO Label>
single protein format

>  <Assay Organism>
Bacillus subtilis

>  <Assay Tissue ChEMBL ID>
None

>  <Assay Tissue Name>
None

>  <Assay Cell Type>
None

>  <Assay Subcellular Fraction>
None

>  <Assay Parameters>


>  <Assay Variant Accession>


>  <Assay Variant Mutation>


>  <Target ChEMBL ID>
CHEMBL5171

>  <Target Name>
S-ribosylhomocysteine lyase

>  <Target Organism>
Bacillus subtilis (strain 168)

>  <Target Type>
SINGLE PROTEIN

>  <Document ChEMBL ID>
CHEMBL1152553

>  <Source ID>
1

>  <Source Description>
Scientific Literature

>  <Document Journal>
Bioorg Med Chem

>  <Document Year>
2009

>  <Cell ChEMBL ID>
None

>  <MMFF94 Energy>
73.589

$$$$
Compound 8
 OpenBabel07082414563D

 33 33  0  0  1  0  0  0  0  0999 V2000
    2.3448   -1.5941   -0.1875 S   0  0  0  0  0  0  0  0  0  0  0  0
    2.0947    0.1126   -0.8216 C   0  0  0  0  0  0  0  0  0  0  0  0
    0.6736   -2.0032    0.4305 C   0  0  0  0  0  0  0  0  0  0  0  0
    1.3518    0.1665   -2.1678 C   0  0  1  0  0  0  0  0  0  0  0  0
    0.3293   -1.2653    1.7230 C   0  0  0  0  0  0  0  0  0  0  0  0
   -0.0413   -0.1483   -1.9841 O   0  0  0  0  0  0  0  0  0  0  0  0
    1.3478    1.5601   -2.7812 C   0  0  2  0  0  0  0  0  0  0  0  0
   -1.0911   -1.5927    2.1999 C   0  0  2  0  0  0  0  0  0  0  0  0
   -0.7707    1.0710   -1.8632 C   0  0  2  0  0  0  0  0  0  0  0  0
    2.5149    2.2090   -2.5607 F   0  0  0  0  0  0  0  0  0  0  0  0
    0.2004    2.2371   -2.0670 C   0  0  2  0  0  0  0  0  0  0  0  0
   -2.1016   -0.9261    1.3301 N   0  3  0  0  0  0  0  0  0  0  0  0
   -1.2533   -1.1652    3.6658 C   0  0  0  0  0  0  0  0  0  0  0  0
   -1.3210    1.1430   -0.5618 O   0  0  0  0  0  0  0  0  0  0  0  0
   -0.3764    3.2900   -2.8399 O   0  0  0  0  0  0  0  0  0  0  0  0
   -0.6512   -1.6247    4.6224 O   0  0  0  0  0  0  0  0  0  0  0  0
   -2.1521   -0.1711    3.8458 O   0  5  0  0  0  0  0  0  0  0  0  0
    3.0534    0.5713   -0.9456 H   0  0  0  0  0  0  0  0  0  0  0  0
    1.4870    0.6271   -0.1069 H   0  0  0  0  0  0  0  0  0  0  0  0
    0.6239   -3.0563    0.6133 H   0  0  0  0  0  0  0  0  0  0  0  0
   -0.0314   -1.6987   -0.3146 H   0  0  0  0  0  0  0  0  0  0  0  0
    1.8643   -0.5294   -2.7986 H   0  0  0  0  0  0  0  0  0  0  0  0
    0.4036   -0.2117    1.5515 H   0  0  0  0  0  0  0  0  0  0  0  0
    1.0169   -1.5791    2.4804 H   0  0  0  0  0  0  0  0  0  0  0  0
    1.2393    1.5477   -3.8456 H   0  0  0  0  0  0  0  0  0  0  0  0
   -1.2514   -2.6485    2.1322 H   0  0  0  0  0  0  0  0  0  0  0  0
   -1.5545    1.1151   -2.5902 H   0  0  0  0  0  0  0  0  0  0  0  0
    0.4883    2.7239   -1.1587 H   0  0  0  0  0  0  0  0  0  0  0  0
   -1.9738    0.0849    1.3738 H   0  0  0  0  0  0  0  0  0  0  0  0
   -3.0390   -1.1646    1.6537 H   0  0  0  0  0  0  0  0  0  0  0  0
   -1.9834   -1.2425    0.3676 H   0  0  0  0  0  0  0  0  0  0  0  0
   -0.6072    1.1027    0.0938 H   0  0  0  0  0  0  0  0  0  0  0  0
   -0.6716    2.9392   -3.6947 H   0  0  0  0  0  0  0  0  0  0  0  0
  1  2  1  0  0  0  0
  1  3  1  0  0  0  0
  2  4  1  0  0  0  0
  2 18  1  0  0  0  0
  2 19  1  0  0  0  0
  3  5  1  0  0  0  0
  3 20  1  0  0  0  0
  3 21  1  0  0  0  0
  4  6  1  0  0  0  0
  4  7  1  0  0  0  0
  4 22  1  6  0  0  0
  5  8  1  0  0  0  0
  5 23  1  0  0  0  0
  5 24  1  0  0  0  0
  6  9  1  0  0  0  0
  7 10  1  0  0  0  0
  7 11  1  0  0  0  0
  7 25  1  6  0  0  0
  8 12  1  0  0  0  0
  8 13  1  0  0  0  0
  8 26  1  6  0  0  0
  9 14  1  0  0  0  0
  9 11  1  0  0  0  0
  9 27  1  6  0  0  0
 11 15  1  0  0  0  0
 11 28  1  1  0  0  0
 12 29  1  0  0  0  0
 12 30  1  0  0  0  0
 12 31  1  0  0  0  0
 13 16  2  0  0  0  0
 13 17  1  0  0  0  0
 14 32  1  0  0  0  0
 15 33  1  0  0  0  0
M  CHG  2  12   1  17  -1
M  END
>  <Molecule Name>
Active 8

>  <Molecule ChEMBL ID>
CHEMBL593447

>  <Molecule Name 2>


>  <Molecule Max Phase>
None

>  <Molecular Weight>
269.29

>  <#RO5 Violations>
0

>  <AlogP>
-1.06

>  <Compound Key>
21a

>  <Smiles>
N[C@@H](CCSC[C@H]1OC(O)[C@H](O)[C@H]1F)C(=O)O

>  <Standard Type>
Ki

>  <Standard Relation>
'='

>  <Standard Value>
2800

>  <Standard Units>
nM

>  <pChEMBL Value>
5.55

>  <Data Validity Comment>


>  <Comment>


>  <Uo Units>
UO_0000065

>  <Ligand Efficiency BEI>
20.62

>  <Ligand Efficiency LE>
0.45

>  <Ligand Efficiency LLE>
6.61

>  <Ligand Efficiency SEI>
4.91

>  <Potential Duplicate>
0

>  <Assay ChEMBL ID>
CHEMBL1071831

>  <Assay Description>
Inhibition of Bacillus subtilis LuxS assessed as enzyme-inhibitor dissociation constant

>  <Assay Type>
B

>  <BAO Format ID>
BAO_0000357

>  <BAO Label>
single protein format

>  <Assay Organism>
Bacillus subtilis

>  <Assay Tissue ChEMBL ID>
None

>  <Assay Tissue Name>
None

>  <Assay Cell Type>
None

>  <Assay Subcellular Fraction>
None

>  <Assay Parameters>


>  <Assay Variant Accession>


>  <Assay Variant Mutation>


>  <Target ChEMBL ID>
CHEMBL5171

>  <Target Name>
S-ribosylhomocysteine lyase

>  <Target Organism>
Bacillus subtilis (strain 168)

>  <Target Type>
SINGLE PROTEIN

>  <Document ChEMBL ID>
CHEMBL1152553

>  <Source ID>
1

>  <Source Description>
Scientific Literature

>  <Document Journal>
Bioorg Med Chem

>  <Document Year>
2009

>  <Cell ChEMBL ID>
None

>  <MMFF94 Energy>
70.052

$$$$
Compound 9
 OpenBabel07082414563D

 34 34  0  0  1  0  0  0  0  0999 V2000
    0.2820   -1.7869    0.3760 S   0  0  0  0  0  0  0  0  0  0  0  0
   -0.6316   -0.2698   -0.0813 C   0  0  0  0  0  0  0  0  0  0  0  0
    1.4560   -1.0824    1.5832 C   0  0  0  0  0  0  0  0  0  0  0  0
   -1.8850   -0.5946   -0.9005 C   0  0  1  0  0  0  0  0  0  0  0  0
    2.5850   -0.3210    0.8906 C   0  0  0  0  0  0  0  0  0  0  0  0
   -2.9139   -1.1466   -0.0547 O   0  0  0  0  0  0  0  0  0  0  0  0
   -2.4993    0.6633   -1.5237 C   0  0  1  0  0  0  0  0  0  0  0  0
    3.6249    0.1969    1.8914 C   0  0  2  0  0  0  0  0  0  0  0  0
   -4.1768   -0.6068   -0.4688 C   0  0  1  0  0  0  0  0  0  0  0  0
   -1.9108    1.0416   -2.7644 O   0  0  0  0  0  0  0  0  0  0  0  0
   -3.9328    0.2159   -1.7351 C   0  0  2  0  0  0  0  0  0  0  0  0
    3.0246    1.2233    2.7764 N   0  3  0  0  0  0  0  0  0  0  0  0
    4.8220    0.7934    1.1432 C   0  0  0  0  0  0  0  0  0  0  0  0
   -5.1110   -1.6424   -0.7003 O   0  0  0  0  0  0  0  0  0  0  0  0
   -4.0184   -0.6234   -2.9044 O   0  0  0  0  0  0  0  0  0  0  0  0
    5.1163    1.9778    1.0802 O   0  0  0  0  0  0  0  0  0  0  0  0
    5.5788   -0.1358    0.5294 O   0  5  0  0  0  0  0  0  0  0  0  0
    0.0094    0.3605   -0.6616 H   0  0  0  0  0  0  0  0  0  0  0  0
   -0.9368    0.2224    0.8184 H   0  0  0  0  0  0  0  0  0  0  0  0
    1.8774   -1.8773    2.1624 H   0  0  0  0  0  0  0  0  0  0  0  0
    0.9229   -0.3960    2.2074 H   0  0  0  0  0  0  0  0  0  0  0  0
   -1.5711   -1.2829   -1.6572 H   0  0  0  0  0  0  0  0  0  0  0  0
    2.1680    0.5115    0.3634 H   0  0  0  0  0  0  0  0  0  0  0  0
    3.0769   -0.9951    0.2209 H   0  0  0  0  0  0  0  0  0  0  0  0
   -2.3657    1.5289   -0.9091 H   0  0  0  0  0  0  0  0  0  0  0  0
    3.9582   -0.6239    2.4914 H   0  0  0  0  0  0  0  0  0  0  0  0
   -4.5900    0.0155    0.2973 H   0  0  0  0  0  0  0  0  0  0  0  0
   -1.9855    0.3081   -3.3947 H   0  0  0  0  0  0  0  0  0  0  0  0
   -4.6329    1.0109   -1.8857 H   0  0  0  0  0  0  0  0  0  0  0  0
    2.7032    2.0112    2.2140 H   0  0  0  0  0  0  0  0  0  0  0  0
    3.7234    1.5459    3.4457 H   0  0  0  0  0  0  0  0  0  0  0  0
    2.2341    0.8190    3.2785 H   0  0  0  0  0  0  0  0  0  0  0  0
   -4.7741   -2.2331   -1.3920 H   0  0  0  0  0  0  0  0  0  0  0  0
   -3.3986   -1.3644   -2.8166 H   0  0  0  0  0  0  0  0  0  0  0  0
  1  2  1  0  0  0  0
  1  3  1  0  0  0  0
  2  4  1  0  0  0  0
  2 18  1  0  0  0  0
  2 19  1  0  0  0  0
  3  5  1  0  0  0  0
  3 20  1  0  0  0  0
  3 21  1  0  0  0  0
  4  6  1  0  0  0  0
  4  7  1  0  0  0  0
  4 22  1  6  0  0  0
  5  8  1  0  0  0  0
  5 23  1  0  0  0  0
  5 24  1  0  0  0  0
  6  9  1  0  0  0  0
  7 10  1  0  0  0  0
  7 11  1  0  0  0  0
  7 25  1  1  0  0  0
  8 12  1  0  0  0  0
  8 13  1  0  0  0  0
  8 26  1  1  0  0  0
  9 14  1  0  0  0  0
  9 11  1  0  0  0  0
  9 27  1  1  0  0  0
 10 28  1  0  0  0  0
 11 15  1  0  0  0  0
 11 29  1  6  0  0  0
 12 30  1  0  0  0  0
 12 31  1  0  0  0  0
 12 32  1  0  0  0  0
 13 16  2  0  0  0  0
 13 17  1  0  0  0  0
 14 33  1  0  0  0  0
 15 34  1  0  0  0  0
M  CHG  2  12   1  17  -1
M  END
>  <Molecule Name>
Active 9

>  <Molecule ChEMBL ID>
CHEMBL593446

>  <Molecule Name 2>


>  <Molecule Max Phase>
None

>  <Molecular Weight>
267.3

>  <#RO5 Violations>
0

>  <AlogP>
-2.04

>  <Compound Key>
16

>  <Smiles>
N[C@@H](CCSC[C@H]1OC(O)[C@H](O)[C@@H]1O)C(=O)O

>  <Standard Type>
Ki

>  <Standard Relation>
'='

>  <Standard Value>
4200

>  <Standard Units>
nM

>  <pChEMBL Value>
5.38

>  <Data Validity Comment>


>  <Comment>


>  <Uo Units>
UO_0000065

>  <Ligand Efficiency BEI>
20.12

>  <Ligand Efficiency LE>
0.43

>  <Ligand Efficiency LLE>
7.42

>  <Ligand Efficiency SEI>
4.04

>  <Potential Duplicate>
0

>  <Assay ChEMBL ID>
CHEMBL1071830

>  <Assay Description>
Inhibition of Bacillus subtilis LuxS

>  <Assay Type>
B

>  <BAO Format ID>
BAO_0000357

>  <BAO Label>
single protein format

>  <Assay Organism>
Bacillus subtilis

>  <Assay Tissue ChEMBL ID>
None

>  <Assay Tissue Name>
None

>  <Assay Cell Type>
None

>  <Assay Subcellular Fraction>
None

>  <Assay Parameters>


>  <Assay Variant Accession>


>  <Assay Variant Mutation>


>  <Target ChEMBL ID>
CHEMBL5171

>  <Target Name>
S-ribosylhomocysteine lyase

>  <Target Organism>
Bacillus subtilis (strain 168)

>  <Target Type>
SINGLE PROTEIN

>  <Document ChEMBL ID>
CHEMBL1152553

>  <Source ID>
1

>  <Source Description>
Scientific Literature

>  <Document Journal>
Bioorg Med Chem

>  <Document Year>
2009

>  <Cell ChEMBL ID>
None

>  <MMFF94 Energy>
88.588

$$$$
Compound 10
 OpenBabel07082414563D

 33 33  0  0  1  0  0  0  0  0999 V2000
    0.2811   -0.1874    1.8751 S   0  0  0  0  0  0  0  0  0  0  0  0
   -0.4124   -1.0560    0.4196 C   0  0  0  0  0  0  0  0  0  0  0  0
    2.0210   -0.0470    1.3492 C   0  0  0  0  0  0  0  0  0  0  0  0
   -1.9326   -1.1792    0.5241 C   0  0  1  0  0  0  0  0  0  0  0  0
    2.2218    1.1022    0.3627 C   0  0  0  0  0  0  0  0  0  0  0  0
   -2.5735    0.0816    0.2378 O   0  0  0  0  0  0  0  0  0  0  0  0
   -2.4962   -2.1894   -0.4715 C   0  0  2  0  0  0  0  0  0  0  0  0
    3.6910    1.2597   -0.0525 C   0  0  2  0  0  0  0  0  0  0  0  0
   -3.6757   -0.1735   -0.6373 C   0  0  1  0  0  0  0  0  0  0  0  0
   -1.8276   -2.1164   -1.6540 F   0  0  0  0  0  0  0  0  0  0  0  0
   -3.9030   -1.6885   -0.6799 C   0  0  2  0  0  0  0  0  0  0  0  0
    4.5308    1.8530    1.0113 N   0  3  0  0  0  0  0  0  0  0  0  0
    3.7549    2.1155   -1.3231 C   0  0  0  0  0  0  0  0  0  0  0  0
   -4.8327    0.5051   -0.1869 O   0  0  0  0  0  0  0  0  0  0  0  0
   -4.7631   -2.1040    0.3947 O   0  0  0  0  0  0  0  0  0  0  0  0
    3.5932    1.7180   -2.4661 O   0  0  0  0  0  0  0  0  0  0  0  0
    3.9411    3.4329   -1.0768 O   0  5  0  0  0  0  0  0  0  0  0  0
    0.0143   -2.0355    0.3613 H   0  0  0  0  0  0  0  0  0  0  0  0
   -0.1771   -0.4901   -0.4575 H   0  0  0  0  0  0  0  0  0  0  0  0
    2.3165   -0.9622    0.8803 H   0  0  0  0  0  0  0  0  0  0  0  0
    2.6168    0.1494    2.2160 H   0  0  0  0  0  0  0  0  0  0  0  0
   -2.1299   -1.4980    1.5262 H   0  0  0  0  0  0  0  0  0  0  0  0
    1.8940    2.0115    0.8216 H   0  0  0  0  0  0  0  0  0  0  0  0
    1.6535    0.8831   -0.5170 H   0  0  0  0  0  0  0  0  0  0  0  0
   -2.4265   -3.2006   -0.1288 H   0  0  0  0  0  0  0  0  0  0  0  0
    4.0877    0.2830   -0.2359 H   0  0  0  0  0  0  0  0  0  0  0  0
   -3.4625    0.1872   -1.6218 H   0  0  0  0  0  0  0  0  0  0  0  0
   -4.3744   -2.0469   -1.5711 H   0  0  0  0  0  0  0  0  0  0  0  0
    4.1940    2.7914    1.2267 H   0  0  0  0  0  0  0  0  0  0  0  0
    5.4982    1.9039    0.6921 H   0  0  0  0  0  0  0  0  0  0  0  0
    4.4791    1.2727    1.8486 H   0  0  0  0  0  0  0  0  0  0  0  0
   -5.0576    0.2026    0.7069 H   0  0  0  0  0  0  0  0  0  0  0  0
   -4.3904   -1.8082    1.2400 H   0  0  0  0  0  0  0  0  0  0  0  0
  1  2  1  0  0  0  0
  1  3  1  0  0  0  0
  2  4  1  0  0  0  0
  2 18  1  0  0  0  0
  2 19  1  0  0  0  0
  3  5  1  0  0  0  0
  3 20  1  0  0  0  0
  3 21  1  0  0  0  0
  4  6  1  0  0  0  0
  4  7  1  0  0  0  0
  4 22  1  1  0  0  0
  5  8  1  0  0  0  0
  5 23  1  0  0  0  0
  5 24  1  0  0  0  0
  6  9  1  0  0  0  0
  7 10  1  0  0  0  0
  7 11  1  0  0  0  0
  7 25  1  1  0  0  0
  8 12  1  0  0  0  0
  8 13  1  0  0  0  0
  8 26  1  6  0  0  0
  9 14  1  0  0  0  0
  9 11  1  0  0  0  0
  9 27  1  6  0  0  0
 11 15  1  0  0  0  0
 11 28  1  6  0  0  0
 12 29  1  0  0  0  0
 12 30  1  0  0  0  0
 12 31  1  0  0  0  0
 13 16  2  0  0  0  0
 13 17  1  0  0  0  0
 14 32  1  0  0  0  0
 15 33  1  0  0  0  0
M  CHG  2  12   1  17  -1
M  END
>  <Molecule Name>
Active 10

>  <Molecule ChEMBL ID>
CHEMBL593447

>  <Molecule Name 2>


>  <Molecule Max Phase>
None

>  <Molecular Weight>
269.29

>  <#RO5 Violations>
0

>  <AlogP>
-1.06

>  <Compound Key>
21a

>  <Smiles>
N[C@@H](CCSC[C@H]1OC(O)[C@H](O)[C@H]1F)C(=O)O

>  <Standard Type>
Ki

>  <Standard Relation>
'='

>  <Standard Value>
7700

>  <Standard Units>
nM

>  <pChEMBL Value>
5.11

>  <Data Validity Comment>


>  <Comment>


>  <Uo Units>
UO_0000065

>  <Ligand Efficiency BEI>
18.99

>  <Ligand Efficiency LE>
0.41

>  <Ligand Efficiency LLE>
6.17

>  <Ligand Efficiency SEI>
4.52

>  <Potential Duplicate>
0

>  <Assay ChEMBL ID>
CHEMBL1071830

>  <Assay Description>
Inhibition of Bacillus subtilis LuxS

>  <Assay Type>
B

>  <BAO Format ID>
BAO_0000357

>  <BAO Label>
single protein format

>  <Assay Organism>
Bacillus subtilis

>  <Assay Tissue ChEMBL ID>
None

>  <Assay Tissue Name>
None

>  <Assay Cell Type>
None

>  <Assay Subcellular Fraction>
None

>  <Assay Parameters>


>  <Assay Variant Accession>


>  <Assay Variant Mutation>


>  <Target ChEMBL ID>
CHEMBL5171

>  <Target Name>
S-ribosylhomocysteine lyase

>  <Target Organism>
Bacillus subtilis (strain 168)

>  <Target Type>
SINGLE PROTEIN

>  <Document ChEMBL ID>
CHEMBL1152553

>  <Source ID>
1

>  <Source Description>
Scientific Literature

>  <Document Journal>
Bioorg Med Chem

>  <Document Year>
2009

>  <Cell ChEMBL ID>
None

>  <MMFF94 Energy>
76.658

$$$$
