#REMARK Cluster   1 of Poses:  1 Score: -5.66 kcal/mol
@<TRIPOS>MOLECULE
ligand_H1D.pdb
 33 32 0 0 0
SMALL
GASTEIGER

@<TRIPOS>ATOM
      1 O1        -20.2850   32.6850  -15.7290 O.co2   1  H1D        -0.5442
      2 C1        -21.1000   32.2270  -14.8980 C.2     1  H1D         0.0894
      3 O2        -21.2900   32.6570  -13.7410 O.co2   1  H1D        -0.5442
      4 C2        -21.9430   31.0290  -15.3440 C.3     1  H1D         0.0167
      5 N1        -22.0130   30.0420  -14.2560 N.4     1  H1D         0.2249
      6 C3        -23.3520   31.4760  -15.7420 C.3     1  H1D         0.0047
      7 C4        -23.7290   31.0400  -17.1600 C.3     1  H1D        -0.0008
      8 S1        -25.5260   31.1370  -17.4940 S.3     1  H1D        -0.1579
      9 C5        -25.7340   29.7000  -18.6080 C.3     1  H1D         0.0227
     10 C6        -26.6880   28.6580  -18.0250 C.3     1  H1D         0.0986
     11 O3        -27.8100   28.5290  -18.9040 O.3     1  H1D        -0.3879
     12 C7        -26.0220   27.2880  -17.8670 C.3     1  H1D         0.1592
     13 O4        -24.7700   27.4320  -17.1920 O.3     1  H1D        -0.3799
     14 C8        -26.9380   26.3960  -17.0270 C.2     1  H1D         0.2666
     15 O5        -27.8290   25.7340  -17.5560 O.2     1  H1D        -0.2708
     16 N2        -26.6810   26.3930  -15.7230 N.am    1  H1D        -0.1953
     17 O6        -27.4300   25.6330  -14.8800 O.3     1  H1D        -0.2951
     18 H1        -21.4800   30.5810  -16.1990 H       1  H1D         0.0915
     19 H2        -22.8020   29.4160  -14.4150 H       1  H1D         0.2001
     20 H3        -22.1360   30.5260  -13.3660 H       1  H1D         0.2001
     21 H4        -21.1490   29.5010  -14.2320 H       1  H1D         0.2001
     22 H5        -23.4010   32.5430  -15.6870 H       1  H1D         0.0332
     23 H6        -24.0420   31.0140  -15.0660 H       1  H1D         0.0332
     24 H7        -23.4120   30.0270  -17.2990 H       1  H1D         0.0378
     25 H8        -23.2430   31.7110  -17.8380 H       1  H1D         0.0378
     26 H9        -26.1250   30.0410  -19.5440 H       1  H1D         0.0402
     27 H10       -24.7770   29.2380  -18.7340 H       1  H1D         0.0402
     28 H11       -26.9890   28.9870  -17.0520 H       1  H1D         0.0632
     29 H12       -28.6090   28.3500  -18.3850 H       1  H1D         0.2099
     30 H13       -25.8550   26.8560  -18.8320 H       1  H1D         0.0717
     31 H14       -24.9280   27.6940  -16.2710 H       1  H1D         0.2105
     32 H15       -25.9460   26.9420  -15.3660 H       1  H1D         0.1823
     33 H16       -27.4930   26.0730  -14.0170 H       1  H1D         0.2414
@<TRIPOS>BOND
     1    17    16    1
     2    16    14   am
     3    15    14    2
     4    14    12    1
     5    11    10    1
     6    12    10    1
     7    12    13    1
     8    10     9    1
     9     9     8    1
    10     6     4    1
    11     6     7    1
    12     8     7    1
    13     1     2   ar
    14     4     2    1
    15     4     5    1
    16     2     3   ar
    17     4    18    1
    18     5    19    1
    19     5    20    1
    20     5    21    1
    21     6    22    1
    22     6    23    1
    23     7    24    1
    24     7    25    1
    25     9    26    1
    26     9    27    1
    27    10    28    1
    28    11    29    1
    29    12    30    1
    30    13    31    1
    31    16    32    1
    32    17    33    1
