MODEL 1
REMARK VINA RESULT:      -7.6      0.000      0.000
REMARK  Name = H1D
REMARK  12 active torsions:
REMARK  status: ('A' for Active; 'I' for Inactive)
REMARK    1  A    between atoms: C_2  and  C_4
REMARK    2  A    between atoms: C_4  and  N_5
REMARK    3  A    between atoms: C_4  and  C_6
REMARK    4  A    between atoms: C_6  and  C_7
REMARK    5  A    between atoms: C_7  and  S_8
REMARK    6  A    between atoms: S_8  and  C_9
REMARK    7  A    between atoms: C_9  and  C_10
REMARK    8  A    between atoms: C_10  and  O_11
REMARK    9  A    between atoms: C_10  and  C_12
REMARK   10  A    between atoms: C_12  and  O_13
REMARK   11  A    between atoms: C_12  and  C_14
REMARK   12  A    between atoms: N_16  and  O_17
REMARK                            x       y       z     vdW  Elec       q    Type
REMARK                         _______ _______ _______ _____ _____    ______ ____
ROOT
ATOM      1  C   UNK     1     -23.789  31.185 -16.934  0.00  0.00    +0.000 C 
ENDROOT
BRANCH   1   2
ATOM      2  S   UNK     1     -23.664  32.363 -15.539  0.00  0.00    +0.000 S 
BRANCH   2   3
ATOM      3  C   UNK     1     -22.302  33.434 -16.131  0.00  0.00    +0.000 C 
BRANCH   3   4
ATOM      4  C   UNK     1     -21.057  32.651 -16.556  0.00  0.00    +0.000 C 
BRANCH   4   5
ATOM      5  C   UNK     1     -19.803  33.526 -16.613  0.00  0.00    +0.000 C 
BRANCH   5   6
ATOM      6  N   UNK     1     -19.770  34.439 -15.460  0.00  0.00    +0.000 N 
ATOM      7  H   UNK     1     -19.267  35.290 -15.714  0.00  0.00    +0.000 HD
ATOM      8  H   UNK     1     -19.297  33.984 -14.679  0.00  0.00    +0.000 HD
ATOM      9  H   UNK     1     -20.724  34.676 -15.188  0.00  0.00    +0.000 HD
ENDBRANCH   5   6
BRANCH   5  11
ATOM     10  O   UNK     1     -19.353  33.748 -18.934  0.00  0.00    +0.000 OA
ATOM     11  C   UNK     1     -19.766  34.337 -17.911  0.00  0.00    +0.000 C 
ATOM     12  O   UNK     1     -20.152  35.524 -17.853  0.00  0.00    +0.000 OA
ENDBRANCH   5  11
ENDBRANCH   4   5
ENDBRANCH   3   4
ENDBRANCH   2   3
ENDBRANCH   1   2
BRANCH   1  13
ATOM     13  C   UNK     1     -25.235  30.984 -17.385  0.00  0.00    +0.000 C 
BRANCH  13  14
ATOM     14  O   UNK     1     -25.523  31.931 -18.419  0.00  0.00    +0.000 OA
ATOM     15  H   UNK     1     -26.178  31.556 -19.028  0.00  0.00    +0.000 HD
ENDBRANCH  13  14
BRANCH  13  16
ATOM     16  C   UNK     1     -25.481  29.572 -17.924  0.00  0.00    +0.000 C 
BRANCH  16  17
ATOM     17  C   UNK     1     -25.649  29.654 -19.442  0.00  0.00    +0.000 C 
ATOM     18  O   UNK     1     -26.755  29.851 -19.943  0.00  0.00    +0.000 OA
ATOM     19  N   UNK     1     -24.528  29.514 -20.143  0.00  0.00    +0.000 N 
ATOM     20  H   UNK     1     -23.673  29.367 -19.676  0.00  0.00    +0.000 HD
BRANCH  19  21
ATOM     21  O   UNK     1     -24.558  29.574 -21.502  0.00  0.00    +0.000 OA
ATOM     22  H   UNK     1     -24.388  30.485 -21.789  0.00  0.00    +0.000 HD
ENDBRANCH  19  21
ENDBRANCH  16  17
BRANCH  16  23
ATOM     23  O   UNK     1     -26.678  29.036 -17.355  0.00  0.00    +0.000 OA
ATOM     24  H   UNK     1     -26.464  28.244 -16.838  0.00  0.00    +0.000 HD
ENDBRANCH  16  23
ENDBRANCH  13  16
ENDBRANCH   1  13
TORSDOF 12
ENDMDL
MODEL 2
REMARK VINA RESULT:      -7.2      1.313      1.478
REMARK  Name = H1D
REMARK  12 active torsions:
REMARK  status: ('A' for Active; 'I' for Inactive)
REMARK    1  A    between atoms: C_2  and  C_4
REMARK    2  A    between atoms: C_4  and  N_5
REMARK    3  A    between atoms: C_4  and  C_6
REMARK    4  A    between atoms: C_6  and  C_7
REMARK    5  A    between atoms: C_7  and  S_8
REMARK    6  A    between atoms: S_8  and  C_9
REMARK    7  A    between atoms: C_9  and  C_10
REMARK    8  A    between atoms: C_10  and  O_11
REMARK    9  A    between atoms: C_10  and  C_12
REMARK   10  A    between atoms: C_12  and  O_13
REMARK   11  A    between atoms: C_12  and  C_14
REMARK   12  A    between atoms: N_16  and  O_17
REMARK                            x       y       z     vdW  Elec       q    Type
REMARK                         _______ _______ _______ _____ _____    ______ ____
ROOT
ATOM      1  C   UNK     1     -23.905  31.070 -16.900  0.00  0.00    +0.000 C 
ENDROOT
BRANCH   1   2
ATOM      2  S   UNK     1     -23.738  32.651 -15.994  0.00  0.00    +0.000 S 
BRANCH   2   3
ATOM      3  C   UNK     1     -22.051  32.463 -15.309  0.00  0.00    +0.000 C 
BRANCH   3   4
ATOM      4  C   UNK     1     -20.951  32.898 -16.281  0.00  0.00    +0.000 C 
BRANCH   4   5
ATOM      5  C   UNK     1     -19.582  33.011 -15.606  0.00  0.00    +0.000 C 
BRANCH   5   6
ATOM      6  N   UNK     1     -19.637  32.444 -14.251  0.00  0.00    +0.000 N 
ATOM      7  H   UNK     1     -19.424  31.447 -14.290  0.00  0.00    +0.000 HD
ATOM      8  H   UNK     1     -20.572  32.578 -13.864  0.00  0.00    +0.000 HD
ATOM      9  H   UNK     1     -18.954  32.915 -13.658  0.00  0.00    +0.000 HD
ENDBRANCH   5   6
BRANCH   5  11
ATOM     10  O   UNK     1     -18.065  34.707 -14.925  0.00  0.00    +0.000 OA
ATOM     11  C   UNK     1     -19.132  34.473 -15.534  0.00  0.00    +0.000 C 
ATOM     12  O   UNK     1     -19.862  35.321 -16.089  0.00  0.00    +0.000 OA
ENDBRANCH   5  11
ENDBRANCH   4   5
ENDBRANCH   3   4
ENDBRANCH   2   3
ENDBRANCH   1   2
BRANCH   1  13
ATOM     13  C   UNK     1     -25.349  30.806 -17.329  0.00  0.00    +0.000 C 
BRANCH  13  14
ATOM     14  O   UNK     1     -25.719  31.791 -18.298  0.00  0.00    +0.000 OA
ATOM     15  H   UNK     1     -26.168  32.528 -17.856  0.00  0.00    +0.000 HD
ENDBRANCH  13  14
BRANCH  13  16
ATOM     16  C   UNK     1     -25.523  29.415 -17.944  0.00  0.00    +0.000 C 
BRANCH  16  17
ATOM     17  C   UNK     1     -25.663  29.568 -19.460  0.00  0.00    +0.000 C 
ATOM     18  O   UNK     1     -26.763  29.764 -19.974  0.00  0.00    +0.000 OA
ATOM     19  N   UNK     1     -24.524  29.488 -20.142  0.00  0.00    +0.000 N 
ATOM     20  H   UNK     1     -23.676  29.337 -19.665  0.00  0.00    +0.000 HD
BRANCH  19  21
ATOM     21  O   UNK     1     -24.528  29.614 -21.497  0.00  0.00    +0.000 OA
ATOM     22  H   UNK     1     -24.586  30.553 -21.734  0.00  0.00    +0.000 HD
ENDBRANCH  19  21
ENDBRANCH  16  17
BRANCH  16  23
ATOM     23  O   UNK     1     -26.709  28.802 -17.430  0.00  0.00    +0.000 OA
ATOM     24  H   UNK     1     -27.184  28.362 -18.152  0.00  0.00    +0.000 HD
ENDBRANCH  16  23
ENDBRANCH  13  16
ENDBRANCH   1  13
TORSDOF 12
ENDMDL
MODEL 3
REMARK VINA RESULT:      -7.1      1.099      1.278
REMARK  Name = H1D
REMARK  12 active torsions:
REMARK  status: ('A' for Active; 'I' for Inactive)
REMARK    1  A    between atoms: C_2  and  C_4
REMARK    2  A    between atoms: C_4  and  N_5
REMARK    3  A    between atoms: C_4  and  C_6
REMARK    4  A    between atoms: C_6  and  C_7
REMARK    5  A    between atoms: C_7  and  S_8
REMARK    6  A    between atoms: S_8  and  C_9
REMARK    7  A    between atoms: C_9  and  C_10
REMARK    8  A    between atoms: C_10  and  O_11
REMARK    9  A    between atoms: C_10  and  C_12
REMARK   10  A    between atoms: C_12  and  O_13
REMARK   11  A    between atoms: C_12  and  C_14
REMARK   12  A    between atoms: N_16  and  O_17
REMARK                            x       y       z     vdW  Elec       q    Type
REMARK                         _______ _______ _______ _____ _____    ______ ____
ROOT
ATOM      1  C   UNK     1     -23.960  31.058 -16.757  0.00  0.00    +0.000 C 
ENDROOT
BRANCH   1   2
ATOM      2  S   UNK     1     -22.537  31.227 -15.618  0.00  0.00    +0.000 S 
BRANCH   2   3
ATOM      3  C   UNK     1     -21.643  32.614 -16.410  0.00  0.00    +0.000 C 
BRANCH   3   4
ATOM      4  C   UNK     1     -20.121  32.500 -16.290  0.00  0.00    +0.000 C 
BRANCH   4   5
ATOM      5  C   UNK     1     -19.415  33.848 -16.458  0.00  0.00    +0.000 C 
BRANCH   5   6
ATOM      6  N   UNK     1     -19.871  34.790 -15.425  0.00  0.00    +0.000 N 
ATOM      7  H   UNK     1     -20.890  34.770 -15.373  0.00  0.00    +0.000 HD
ATOM      8  H   UNK     1     -19.561  35.732 -15.663  0.00  0.00    +0.000 HD
ATOM      9  H   UNK     1     -19.479  34.520 -14.523  0.00  0.00    +0.000 HD
ENDBRANCH   5   6
BRANCH   5  11
ATOM     10  O   UNK     1     -19.348  33.742 -18.829  0.00  0.00    +0.000 OA
ATOM     11  C   UNK     1     -19.690  34.434 -17.845  0.00  0.00    +0.000 C 
ATOM     12  O   UNK     1     -20.235  35.557 -17.891  0.00  0.00    +0.000 OA
ENDBRANCH   5  11
ENDBRANCH   4   5
ENDBRANCH   3   4
ENDBRANCH   2   3
ENDBRANCH   1   2
BRANCH   1  13
ATOM     13  C   UNK     1     -23.886  29.770 -17.578  0.00  0.00    +0.000 C 
BRANCH  13  14
ATOM     14  O   UNK     1     -23.214  28.776 -16.799  0.00  0.00    +0.000 OA
ATOM     15  H   UNK     1     -23.688  27.933 -16.871  0.00  0.00    +0.000 HD
ENDBRANCH  13  14
BRANCH  13  16
ATOM     16  C   UNK     1     -25.273  29.247 -17.959  0.00  0.00    +0.000 C 
BRANCH  16  17
ATOM     17  C   UNK     1     -25.491  29.494 -19.453  0.00  0.00    +0.000 C 
ATOM     18  O   UNK     1     -26.609  29.764 -19.890  0.00  0.00    +0.000 OA
ATOM     19  N   UNK     1     -24.398  29.408 -20.204  0.00  0.00    +0.000 N 
ATOM     20  H   UNK     1     -23.532  29.195 -19.787  0.00  0.00    +0.000 HD
BRANCH  19  21
ATOM     21  O   UNK     1     -24.472  29.612 -21.547  0.00  0.00    +0.000 OA
ATOM     22  H   UNK     1     -24.237  30.532 -21.748  0.00  0.00    +0.000 HD
ENDBRANCH  19  21
ENDBRANCH  16  17
BRANCH  16  23
ATOM     23  O   UNK     1     -26.276  29.952 -17.223  0.00  0.00    +0.000 OA
ATOM     24  H   UNK     1     -26.632  30.671 -17.768  0.00  0.00    +0.000 HD
ENDBRANCH  16  23
ENDBRANCH  13  16
ENDBRANCH   1  13
TORSDOF 12
ENDMDL
MODEL 4
REMARK VINA RESULT:      -6.8      1.848      2.424
REMARK  Name = H1D
REMARK  12 active torsions:
REMARK  status: ('A' for Active; 'I' for Inactive)
REMARK    1  A    between atoms: C_2  and  C_4
REMARK    2  A    between atoms: C_4  and  N_5
REMARK    3  A    between atoms: C_4  and  C_6
REMARK    4  A    between atoms: C_6  and  C_7
REMARK    5  A    between atoms: C_7  and  S_8
REMARK    6  A    between atoms: S_8  and  C_9
REMARK    7  A    between atoms: C_9  and  C_10
REMARK    8  A    between atoms: C_10  and  O_11
REMARK    9  A    between atoms: C_10  and  C_12
REMARK   10  A    between atoms: C_12  and  O_13
REMARK   11  A    between atoms: C_12  and  C_14
REMARK   12  A    between atoms: N_16  and  O_17
REMARK                            x       y       z     vdW  Elec       q    Type
REMARK                         _______ _______ _______ _____ _____    ______ ____
ROOT
ATOM      1  C   UNK     1     -25.155  31.087 -17.340  0.00  0.00    +0.000 C 
ENDROOT
BRANCH   1   2
ATOM      2  S   UNK     1     -23.378  31.194 -16.913  0.00  0.00    +0.000 S 
BRANCH   2   3
ATOM      3  C   UNK     1     -23.484  31.931 -15.241  0.00  0.00    +0.000 C 
BRANCH   3   4
ATOM      4  C   UNK     1     -22.127  32.040 -14.540  0.00  0.00    +0.000 C 
BRANCH   4   5
ATOM      5  C   UNK     1     -20.973  31.545 -15.415  0.00  0.00    +0.000 C 
BRANCH   5   6
ATOM      6  N   UNK     1     -20.162  30.566 -14.676  0.00  0.00    +0.000 N 
ATOM      7  H   UNK     1     -20.776  29.921 -14.180  0.00  0.00    +0.000 HD
ATOM      8  H   UNK     1     -19.567  31.054 -14.005  0.00  0.00    +0.000 HD
ATOM      9  H   UNK     1     -19.579  30.045 -15.331  0.00  0.00    +0.000 HD
ENDBRANCH   5   6
BRANCH   5  11
ATOM     10  O   UNK     1     -19.022  32.425 -16.445  0.00  0.00    +0.000 OA
ATOM     11  C   UNK     1     -20.089  32.714 -15.859  0.00  0.00    +0.000 C 
ATOM     12  O   UNK     1     -20.499  33.866 -15.604  0.00  0.00    +0.000 OA
ENDBRANCH   5  11
ENDBRANCH   4   5
ENDBRANCH   3   4
ENDBRANCH   2   3
ENDBRANCH   1   2
BRANCH   1  13
ATOM     13  C   UNK     1     -25.500  29.764 -18.025  0.00  0.00    +0.000 C 
BRANCH  13  14
ATOM     14  O   UNK     1     -26.544  29.129 -17.282  0.00  0.00    +0.000 OA
ATOM     15  H   UNK     1     -26.635  29.560 -16.418  0.00  0.00    +0.000 HD
ENDBRANCH  13  14
BRANCH  13  16
ATOM     16  C   UNK     1     -25.971  29.968 -19.468  0.00  0.00    +0.000 C 
BRANCH  16  17
ATOM     17  C   UNK     1     -24.856  29.512 -20.411  0.00  0.00    +0.000 C 
ATOM     18  O   UNK     1     -25.118  29.085 -21.535  0.00  0.00    +0.000 OA
ATOM     19  N   UNK     1     -23.624  29.632 -19.927  0.00  0.00    +0.000 N 
ATOM     20  H   UNK     1     -23.485  29.990 -19.020  0.00  0.00    +0.000 HD
BRANCH  19  21
ATOM     21  O   UNK     1     -22.554  29.261 -20.681  0.00  0.00    +0.000 OA
ATOM     22  H   UNK     1     -22.608  28.311 -20.875  0.00  0.00    +0.000 HD
ENDBRANCH  19  21
ENDBRANCH  16  17
BRANCH  16  23
ATOM     23  O   UNK     1     -26.237  31.353 -19.701  0.00  0.00    +0.000 OA
ATOM     24  H   UNK     1     -27.187  31.479 -19.856  0.00  0.00    +0.000 HD
ENDBRANCH  16  23
ENDBRANCH  13  16
ENDBRANCH   1  13
TORSDOF 12
ENDMDL
MODEL 5
REMARK VINA RESULT:      -6.7      1.286      1.441
REMARK  Name = H1D
REMARK  12 active torsions:
REMARK  status: ('A' for Active; 'I' for Inactive)
REMARK    1  A    between atoms: C_2  and  C_4
REMARK    2  A    between atoms: C_4  and  N_5
REMARK    3  A    between atoms: C_4  and  C_6
REMARK    4  A    between atoms: C_6  and  C_7
REMARK    5  A    between atoms: C_7  and  S_8
REMARK    6  A    between atoms: S_8  and  C_9
REMARK    7  A    between atoms: C_9  and  C_10
REMARK    8  A    between atoms: C_10  and  O_11
REMARK    9  A    between atoms: C_10  and  C_12
REMARK   10  A    between atoms: C_12  and  O_13
REMARK   11  A    between atoms: C_12  and  C_14
REMARK   12  A    between atoms: N_16  and  O_17
REMARK                            x       y       z     vdW  Elec       q    Type
REMARK                         _______ _______ _______ _____ _____    ______ ____
ROOT
ATOM      1  C   UNK     1     -24.589  31.281 -16.399  0.00  0.00    +0.000 C 
ENDROOT
BRANCH   1   2
ATOM      2  S   UNK     1     -23.820  32.916 -16.690  0.00  0.00    +0.000 S 
BRANCH   2   3
ATOM      3  C   UNK     1     -22.286  32.740 -15.707  0.00  0.00    +0.000 C 
BRANCH   3   4
ATOM      4  C   UNK     1     -21.059  32.394 -16.554  0.00  0.00    +0.000 C 
BRANCH   4   5
ATOM      5  C   UNK     1     -19.901  33.370 -16.338  0.00  0.00    +0.000 C 
BRANCH   5   6
ATOM      6  N   UNK     1     -19.349  33.209 -14.985  0.00  0.00    +0.000 N 
ATOM      7  H   UNK     1     -18.722  33.987 -14.778  0.00  0.00    +0.000 HD
ATOM      8  H   UNK     1     -18.831  32.332 -14.930  0.00  0.00    +0.000 HD
ATOM      9  H   UNK     1     -20.111  33.197 -14.307  0.00  0.00    +0.000 HD
ENDBRANCH   5   6
BRANCH   5  11
ATOM     10  O   UNK     1     -20.590  35.183 -17.709  0.00  0.00    +0.000 OA
ATOM     11  C   UNK     1     -20.367  34.816 -16.534  0.00  0.00    +0.000 C 
ATOM     12  O   UNK     1     -20.490  35.518 -15.509  0.00  0.00    +0.000 OA
ENDBRANCH   5  11
ENDBRANCH   4   5
ENDBRANCH   3   4
ENDBRANCH   2   3
ENDBRANCH   1   2
BRANCH   1  13
ATOM     13  C   UNK     1     -24.154  30.250 -17.440  0.00  0.00    +0.000 C 
BRANCH  13  14
ATOM     14  O   UNK     1     -23.142  29.421 -16.860  0.00  0.00    +0.000 OA
ATOM     15  H   UNK     1     -22.724  28.887 -17.553  0.00  0.00    +0.000 HD
ENDBRANCH  13  14
BRANCH  13  16
ATOM     16  C   UNK     1     -25.317  29.365 -17.898  0.00  0.00    +0.000 C 
BRANCH  16  17
ATOM     17  C   UNK     1     -25.533  29.585 -19.396  0.00  0.00    +0.000 C 
ATOM     18  O   UNK     1     -26.645  29.873 -19.836  0.00  0.00    +0.000 OA
ATOM     19  N   UNK     1     -24.444  29.456 -20.148  0.00  0.00    +0.000 N 
ATOM     20  H   UNK     1     -23.582  29.231 -19.728  0.00  0.00    +0.000 HD
BRANCH  19  21
ATOM     21  O   UNK     1     -24.517  29.633 -21.495  0.00  0.00    +0.000 OA
ATOM     22  H   UNK     1     -23.880  29.048 -21.934  0.00  0.00    +0.000 HD
ENDBRANCH  19  21
ENDBRANCH  16  17
BRANCH  16  23
ATOM     23  O   UNK     1     -26.509  29.732 -17.200  0.00  0.00    +0.000 OA
ATOM     24  H   UNK     1     -26.289  30.348 -16.484  0.00  0.00    +0.000 HD
ENDBRANCH  16  23
ENDBRANCH  13  16
ENDBRANCH   1  13
TORSDOF 12
ENDMDL
MODEL 6
REMARK VINA RESULT:      -6.5      1.487      7.047
REMARK  Name = H1D
REMARK  12 active torsions:
REMARK  status: ('A' for Active; 'I' for Inactive)
REMARK    1  A    between atoms: C_2  and  C_4
REMARK    2  A    between atoms: C_4  and  N_5
REMARK    3  A    between atoms: C_4  and  C_6
REMARK    4  A    between atoms: C_6  and  C_7
REMARK    5  A    between atoms: C_7  and  S_8
REMARK    6  A    between atoms: S_8  and  C_9
REMARK    7  A    between atoms: C_9  and  C_10
REMARK    8  A    between atoms: C_10  and  O_11
REMARK    9  A    between atoms: C_10  and  C_12
REMARK   10  A    between atoms: C_12  and  O_13
REMARK   11  A    between atoms: C_12  and  C_14
REMARK   12  A    between atoms: N_16  and  O_17
REMARK                            x       y       z     vdW  Elec       q    Type
REMARK                         _______ _______ _______ _____ _____    ______ ____
ROOT
ATOM      1  C   UNK     1     -21.217  31.827 -15.656  0.00  0.00    +0.000 C 
ENDROOT
BRANCH   1   2
ATOM      2  S   UNK     1     -22.730  32.258 -16.592  0.00  0.00    +0.000 S 
BRANCH   2   3
ATOM      3  C   UNK     1     -23.424  30.590 -16.885  0.00  0.00    +0.000 C 
BRANCH   3   4
ATOM      4  C   UNK     1     -24.841  30.617 -17.465  0.00  0.00    +0.000 C 
BRANCH   4   5
ATOM      5  C   UNK     1     -25.013  29.653 -18.641  0.00  0.00    +0.000 C 
BRANCH   5   6
ATOM      6  N   UNK     1     -23.735  29.482 -19.347  0.00  0.00    +0.000 N 
ATOM      7  H   UNK     1     -23.519  28.488 -19.424  0.00  0.00    +0.000 HD
ATOM      8  H   UNK     1     -22.993  29.951 -18.826  0.00  0.00    +0.000 HD
ATOM      9  H   UNK     1     -23.805  29.889 -20.280  0.00  0.00    +0.000 HD
ENDBRANCH   5   6
BRANCH   5  11
ATOM     10  O   UNK     1     -26.835  31.071 -19.197  0.00  0.00    +0.000 OA
ATOM     11  C   UNK     1     -26.073  30.173 -19.617  0.00  0.00    +0.000 C 
ATOM     12  O   UNK     1     -26.098  29.662 -20.756  0.00  0.00    +0.000 OA
ENDBRANCH   5  11
ENDBRANCH   4   5
ENDBRANCH   3   4
ENDBRANCH   2   3
ENDBRANCH   1   2
BRANCH   1  13
ATOM     13  C   UNK     1     -20.121  32.879 -15.824  0.00  0.00    +0.000 C 
BRANCH  13  14
ATOM     14  O   UNK     1     -18.932  32.225 -16.278  0.00  0.00    +0.000 OA
ATOM     15  H   UNK     1     -18.743  32.495 -17.190  0.00  0.00    +0.000 HD
ENDBRANCH  13  14
BRANCH  13  16
ATOM     16  C   UNK     1     -20.509  33.961 -16.835  0.00  0.00    +0.000 C 
BRANCH  16  17
ATOM     17  C   UNK     1     -19.354  34.140 -17.822  0.00  0.00    +0.000 C 
ATOM     18  O   UNK     1     -19.436  33.711 -18.972  0.00  0.00    +0.000 OA
ATOM     19  N   UNK     1     -18.298  34.790 -17.343  0.00  0.00    +0.000 N 
ATOM     20  H   UNK     1     -18.302  35.114 -16.413  0.00  0.00    +0.000 HD
BRANCH  19  21
ATOM     21  O   UNK     1     -17.213  35.011 -18.133  0.00  0.00    +0.000 OA
ATOM     22  H   UNK     1     -16.539  35.496 -17.631  0.00  0.00    +0.000 HD
ENDBRANCH  19  21
ENDBRANCH  16  17
BRANCH  16  23
ATOM     23  O   UNK     1     -20.735  35.200 -16.158  0.00  0.00    +0.000 OA
ATOM     24  H   UNK     1     -21.664  35.253 -15.883  0.00  0.00    +0.000 HD
ENDBRANCH  16  23
ENDBRANCH  13  16
ENDBRANCH   1  13
TORSDOF 12
ENDMDL
MODEL 7
REMARK VINA RESULT:      -6.3      1.889      7.305
REMARK  Name = H1D
REMARK  12 active torsions:
REMARK  status: ('A' for Active; 'I' for Inactive)
REMARK    1  A    between atoms: C_2  and  C_4
REMARK    2  A    between atoms: C_4  and  N_5
REMARK    3  A    between atoms: C_4  and  C_6
REMARK    4  A    between atoms: C_6  and  C_7
REMARK    5  A    between atoms: C_7  and  S_8
REMARK    6  A    between atoms: S_8  and  C_9
REMARK    7  A    between atoms: C_9  and  C_10
REMARK    8  A    between atoms: C_10  and  O_11
REMARK    9  A    between atoms: C_10  and  C_12
REMARK   10  A    between atoms: C_12  and  O_13
REMARK   11  A    between atoms: C_12  and  C_14
REMARK   12  A    between atoms: N_16  and  O_17
REMARK                            x       y       z     vdW  Elec       q    Type
REMARK                         _______ _______ _______ _____ _____    ______ ____
ROOT
ATOM      1  C   UNK     1     -21.184  31.600 -15.409  0.00  0.00    +0.000 C 
ENDROOT
BRANCH   1   2
ATOM      2  S   UNK     1     -22.970  31.966 -15.571  0.00  0.00    +0.000 S 
BRANCH   2   3
ATOM      3  C   UNK     1     -23.408  30.865 -16.966  0.00  0.00    +0.000 C 
BRANCH   3   4
ATOM      4  C   UNK     1     -24.914  30.802 -17.237  0.00  0.00    +0.000 C 
BRANCH   4   5
ATOM      5  C   UNK     1     -25.257  29.927 -18.446  0.00  0.00    +0.000 C 
BRANCH   5   6
ATOM      6  N   UNK     1     -24.025  29.453 -19.094  0.00  0.00    +0.000 N 
ATOM      7  H   UNK     1     -23.867  28.475 -18.850  0.00  0.00    +0.000 HD
ATOM      8  H   UNK     1     -23.235  30.015 -18.775  0.00  0.00    +0.000 HD
ATOM      9  H   UNK     1     -24.118  29.542 -20.106  0.00  0.00    +0.000 HD
ENDBRANCH   5   6
BRANCH   5  11
ATOM     10  O   UNK     1     -26.420  31.876 -19.145  0.00  0.00    +0.000 OA
ATOM     11  C   UNK     1     -26.102  30.707 -19.457  0.00  0.00    +0.000 C 
ATOM     12  O   UNK     1     -26.409  30.120 -20.516  0.00  0.00    +0.000 OA
ENDBRANCH   5  11
ENDBRANCH   4   5
ENDBRANCH   3   4
ENDBRANCH   2   3
ENDBRANCH   1   2
BRANCH   1  13
ATOM     13  C   UNK     1     -20.394  32.812 -14.916  0.00  0.00    +0.000 C 
BRANCH  13  14
ATOM     14  O   UNK     1     -19.512  32.384 -13.874  0.00  0.00    +0.000 OA
ATOM     15  H   UNK     1     -18.665  32.849 -13.955  0.00  0.00    +0.000 HD
ENDBRANCH  13  14
BRANCH  13  16
ATOM     16  C   UNK     1     -19.566  33.455 -16.033  0.00  0.00    +0.000 C 
BRANCH  16  17
ATOM     17  C   UNK     1     -19.656  34.975 -15.890  0.00  0.00    +0.000 C 
ATOM     18  O   UNK     1     -19.391  35.713 -16.837  0.00  0.00    +0.000 OA
ATOM     19  N   UNK     1     -20.048  35.407 -14.695  0.00  0.00    +0.000 N 
ATOM     20  H   UNK     1     -20.253  34.760 -13.982  0.00  0.00    +0.000 HD
BRANCH  19  21
ATOM     21  O   UNK     1     -20.167  36.741 -14.455  0.00  0.00    +0.000 OA
ATOM     22  H   UNK     1     -20.179  37.222 -15.298  0.00  0.00    +0.000 HD
ENDBRANCH  19  21
ENDBRANCH  16  17
BRANCH  16  23
ATOM     23  O   UNK     1     -20.095  33.078 -17.307  0.00  0.00    +0.000 OA
ATOM     24  H   UNK     1     -21.060  33.182 -17.300  0.00  0.00    +0.000 HD
ENDBRANCH  16  23
ENDBRANCH  13  16
ENDBRANCH   1  13
TORSDOF 12
ENDMDL
MODEL 8
REMARK VINA RESULT:      -6.0      2.183      7.167
REMARK  Name = H1D
REMARK  12 active torsions:
REMARK  status: ('A' for Active; 'I' for Inactive)
REMARK    1  A    between atoms: C_2  and  C_4
REMARK    2  A    between atoms: C_4  and  N_5
REMARK    3  A    between atoms: C_4  and  C_6
REMARK    4  A    between atoms: C_6  and  C_7
REMARK    5  A    between atoms: C_7  and  S_8
REMARK    6  A    between atoms: S_8  and  C_9
REMARK    7  A    between atoms: C_9  and  C_10
REMARK    8  A    between atoms: C_10  and  O_11
REMARK    9  A    between atoms: C_10  and  C_12
REMARK   10  A    between atoms: C_12  and  O_13
REMARK   11  A    between atoms: C_12  and  C_14
REMARK   12  A    between atoms: N_16  and  O_17
REMARK                            x       y       z     vdW  Elec       q    Type
REMARK                         _______ _______ _______ _____ _____    ______ ____
ROOT
ATOM      1  C   UNK     1     -22.372  31.502 -16.040  0.00  0.00    +0.000 C 
ENDROOT
BRANCH   1   2
ATOM      2  S   UNK     1     -23.992  32.344 -16.184  0.00  0.00    +0.000 S 
BRANCH   2   3
ATOM      3  C   UNK     1     -25.046  30.945 -16.715  0.00  0.00    +0.000 C 
BRANCH   3   4
ATOM      4  C   UNK     1     -25.491  31.043 -18.176  0.00  0.00    +0.000 C 
BRANCH   4   5
ATOM      5  C   UNK     1     -25.204  29.763 -18.965  0.00  0.00    +0.000 C 
BRANCH   5   6
ATOM      6  N   UNK     1     -23.755  29.515 -19.017  0.00  0.00    +0.000 N 
ATOM      7  H   UNK     1     -23.334  30.111 -19.730  0.00  0.00    +0.000 HD
ATOM      8  H   UNK     1     -23.586  28.536 -19.249  0.00  0.00    +0.000 HD
ATOM      9  H   UNK     1     -23.342  29.726 -18.109  0.00  0.00    +0.000 HD
ENDBRANCH   5   6
BRANCH   5  11
ATOM     10  O   UNK     1     -25.502  28.923 -21.167  0.00  0.00    +0.000 OA
ATOM     11  C   UNK     1     -25.759  29.868 -20.389  0.00  0.00    +0.000 C 
ATOM     12  O   UNK     1     -26.425  30.888 -20.666  0.00  0.00    +0.000 OA
ENDBRANCH   5  11
ENDBRANCH   4   5
ENDBRANCH   3   4
ENDBRANCH   2   3
ENDBRANCH   1   2
BRANCH   1  13
ATOM     13  C   UNK     1     -21.205  32.478 -16.191  0.00  0.00    +0.000 C 
BRANCH  13  14
ATOM     14  O   UNK     1     -21.731  33.761 -16.544  0.00  0.00    +0.000 OA
ATOM     15  H   UNK     1     -22.651  33.827 -16.245  0.00  0.00    +0.000 HD
ENDBRANCH  13  14
BRANCH  13  16
ATOM     16  C   UNK     1     -20.394  32.612 -14.899  0.00  0.00    +0.000 C 
BRANCH  16  17
ATOM     17  C   UNK     1     -19.178  33.496 -15.180  0.00  0.00    +0.000 C 
ATOM     18  O   UNK     1     -18.775  33.666 -16.330  0.00  0.00    +0.000 OA
ATOM     19  N   UNK     1     -18.626  34.054 -14.107  0.00  0.00    +0.000 N 
ATOM     20  H   UNK     1     -19.005  33.881 -13.214  0.00  0.00    +0.000 HD
BRANCH  19  21
ATOM     21  O   UNK     1     -17.540  34.864 -14.238  0.00  0.00    +0.000 OA
ATOM     22  H   UNK     1     -16.737  34.365 -14.019  0.00  0.00    +0.000 HD
ENDBRANCH  19  21
ENDBRANCH  16  17
BRANCH  16  23
ATOM     23  O   UNK     1     -19.942  31.324 -14.474  0.00  0.00    +0.000 OA
ATOM     24  H   UNK     1     -19.572  31.391 -13.580  0.00  0.00    +0.000 HD
ENDBRANCH  16  23
ENDBRANCH  13  16
ENDBRANCH   1  13
TORSDOF 12
ENDMDL
MODEL 9
REMARK VINA RESULT:      -5.9      2.192      2.731
REMARK  Name = H1D
REMARK  12 active torsions:
REMARK  status: ('A' for Active; 'I' for Inactive)
REMARK    1  A    between atoms: C_2  and  C_4
REMARK    2  A    between atoms: C_4  and  N_5
REMARK    3  A    between atoms: C_4  and  C_6
REMARK    4  A    between atoms: C_6  and  C_7
REMARK    5  A    between atoms: C_7  and  S_8
REMARK    6  A    between atoms: S_8  and  C_9
REMARK    7  A    between atoms: C_9  and  C_10
REMARK    8  A    between atoms: C_10  and  O_11
REMARK    9  A    between atoms: C_10  and  C_12
REMARK   10  A    between atoms: C_12  and  O_13
REMARK   11  A    between atoms: C_12  and  C_14
REMARK   12  A    between atoms: N_16  and  O_17
REMARK                            x       y       z     vdW  Elec       q    Type
REMARK                         _______ _______ _______ _____ _____    ______ ____
ROOT
ATOM      1  C   UNK     1     -23.018  30.947 -16.174  0.00  0.00    +0.000 C 
ENDROOT
BRANCH   1   2
ATOM      2  S   UNK     1     -22.813  32.759 -16.011  0.00  0.00    +0.000 S 
BRANCH   2   3
ATOM      3  C   UNK     1     -21.048  32.934 -16.462  0.00  0.00    +0.000 C 
BRANCH   3   4
ATOM      4  C   UNK     1     -20.351  34.092 -15.744  0.00  0.00    +0.000 C 
BRANCH   4   5
ATOM      5  C   UNK     1     -19.187  33.625 -14.867  0.00  0.00    +0.000 C 
BRANCH   5   6
ATOM      6  N   UNK     1     -19.609  32.496 -14.024  0.00  0.00    +0.000 N 
ATOM      7  H   UNK     1     -19.102  32.524 -13.139  0.00  0.00    +0.000 HD
ATOM      8  H   UNK     1     -19.407  31.619 -14.504  0.00  0.00    +0.000 HD
ATOM      9  H   UNK     1     -20.611  32.563 -13.845  0.00  0.00    +0.000 HD
ENDBRANCH   5   6
BRANCH   5  11
ATOM     10  O   UNK     1     -18.330  35.819 -14.559  0.00  0.00    +0.000 OA
ATOM     11  C   UNK     1     -18.683  34.768 -13.980  0.00  0.00    +0.000 C 
ATOM     12  O   UNK     1     -18.664  34.566 -12.748  0.00  0.00    +0.000 OA
ENDBRANCH   5  11
ENDBRANCH   4   5
ENDBRANCH   3   4
ENDBRANCH   2   3
ENDBRANCH   1   2
BRANCH   1  13
ATOM     13  C   UNK     1     -23.650  30.561 -17.511  0.00  0.00    +0.000 C 
BRANCH  13  14
ATOM     14  O   UNK     1     -23.509  29.148 -17.687  0.00  0.00    +0.000 OA
ATOM     15  H   UNK     1     -24.320  28.788 -18.077  0.00  0.00    +0.000 HD
ENDBRANCH  13  14
BRANCH  13  16
ATOM     16  C   UNK     1     -25.136  30.923 -17.574  0.00  0.00    +0.000 C 
BRANCH  16  17
ATOM     17  C   UNK     1     -25.830  29.958 -18.537  0.00  0.00    +0.000 C 
ATOM     18  O   UNK     1     -26.574  29.074 -18.115  0.00  0.00    +0.000 OA
ATOM     19  N   UNK     1     -25.576  30.166 -19.825  0.00  0.00    +0.000 N 
ATOM     20  H   UNK     1     -24.975  30.898 -20.094  0.00  0.00    +0.000 HD
BRANCH  19  21
ATOM     21  O   UNK     1     -26.143  29.370 -20.772  0.00  0.00    +0.000 OA
ATOM     22  H   UNK     1     -26.351  29.900 -21.558  0.00  0.00    +0.000 HD
ENDBRANCH  19  21
ENDBRANCH  16  17
BRANCH  16  23
ATOM     23  O   UNK     1     -25.291  32.257 -18.064  0.00  0.00    +0.000 OA
ATOM     24  H   UNK     1     -24.506  32.779 -17.835  0.00  0.00    +0.000 HD
ENDBRANCH  16  23
ENDBRANCH  13  16
ENDBRANCH   1  13
TORSDOF 12
ENDMDL
