MODEL 1
REMARK VINA RESULT:      -7.6      0.000      0.000
REMARK  Name = H1D
REMARK  12 active torsions:
REMARK  status: ('A' for Active; 'I' for Inactive)
REMARK    1  A    between atoms: C_2  and  C_4
REMARK    2  A    between atoms: C_4  and  N_5
REMARK    3  A    between atoms: C_4  and  C_6
REMARK    4  A    between atoms: C_6  and  C_7
REMARK    5  A    between atoms: C_7  and  S_8
REMARK    6  A    between atoms: S_8  and  C_9
REMARK    7  A    between atoms: C_9  and  C_10
REMARK    8  A    between atoms: C_10  and  O_11
REMARK    9  A    between atoms: C_10  and  C_12
REMARK   10  A    between atoms: C_12  and  O_13
REMARK   11  A    between atoms: C_12  and  C_14
REMARK   12  A    between atoms: N_16  and  O_17
REMARK                            x       y       z     vdW  Elec       q    Type
REMARK                         _______ _______ _______ _____ _____    ______ ____
ROOT
ATOM      1  C   UNK     1     -23.706  31.086 -16.901  0.00  0.00    +0.000 C 
ENDROOT
BRANCH   1   2
ATOM      2  S   UNK     1     -23.536  32.213 -15.468  0.00  0.00    +0.000 S 
BRANCH   2   3
ATOM      3  C   UNK     1     -22.233  33.340 -16.086  0.00  0.00    +0.000 C 
BRANCH   3   4
ATOM      4  C   UNK     1     -20.972  32.609 -16.556  0.00  0.00    +0.000 C 
BRANCH   4   5
ATOM      5  C   UNK     1     -19.751  33.530 -16.626  0.00  0.00    +0.000 C 
BRANCH   5   6
ATOM      6  N   UNK     1     -19.732  34.434 -15.467  0.00  0.00    +0.000 N 
ATOM      7  H   UNK     1     -19.681  35.401 -15.790  0.00  0.00    +0.000 HD
ATOM      8  H   UNK     1     -18.919  34.226 -14.887  0.00  0.00    +0.000 HD
ATOM      9  H   UNK     1     -20.583  34.303 -14.920  0.00  0.00    +0.000 HD
ENDBRANCH   5   6
BRANCH   5  11
ATOM     10  O   UNK     1     -19.364  33.779 -18.956  0.00  0.00    +0.000 OA
ATOM     11  C   UNK     1     -19.766  34.351 -17.918  0.00  0.00    +0.000 C 
ATOM     12  O   UNK     1     -20.178  35.528 -17.841  0.00  0.00    +0.000 OA
ENDBRANCH   5  11
ENDBRANCH   4   5
ENDBRANCH   3   4
ENDBRANCH   2   3
ENDBRANCH   1   2
BRANCH   1  13
ATOM     13  C   UNK     1     -25.162  30.938 -17.343  0.00  0.00    +0.000 C 
BRANCH  13  14
ATOM     14  O   UNK     1     -25.429  31.913 -18.355  0.00  0.00    +0.000 OA
ATOM     15  H   UNK     1     -24.596  32.322 -18.638  0.00  0.00    +0.000 HD
ENDBRANCH  13  14
BRANCH  13  16
ATOM     16  C   UNK     1     -25.455  29.545 -17.905  0.00  0.00    +0.000 C 
BRANCH  16  17
ATOM     17  C   UNK     1     -25.628  29.660 -19.421  0.00  0.00    +0.000 C 
ATOM     18  O   UNK     1     -26.731  29.895 -19.912  0.00  0.00    +0.000 OA
ATOM     19  N   UNK     1     -24.514  29.504 -20.129  0.00  0.00    +0.000 N 
ATOM     20  H   UNK     1     -23.661  29.326 -19.670  0.00  0.00    +0.000 HD
BRANCH  19  21
ATOM     21  O   UNK     1     -24.548  29.591 -21.487  0.00  0.00    +0.000 OA
ATOM     22  H   UNK     1     -25.458  29.455 -21.797  0.00  0.00    +0.000 HD
ENDBRANCH  19  21
ENDBRANCH  16  17
BRANCH  16  23
ATOM     23  O   UNK     1     -26.666  29.038 -17.339  0.00  0.00    +0.000 OA
ATOM     24  H   UNK     1     -27.232  29.778 -17.069  0.00  0.00    +0.000 HD
ENDBRANCH  16  23
ENDBRANCH  13  16
ENDBRANCH   1  13
TORSDOF 12
ENDMDL
MODEL 2
REMARK VINA RESULT:      -6.8      1.750      1.982
REMARK  Name = H1D
REMARK  12 active torsions:
REMARK  status: ('A' for Active; 'I' for Inactive)
REMARK    1  A    between atoms: C_2  and  C_4
REMARK    2  A    between atoms: C_4  and  N_5
REMARK    3  A    between atoms: C_4  and  C_6
REMARK    4  A    between atoms: C_6  and  C_7
REMARK    5  A    between atoms: C_7  and  S_8
REMARK    6  A    between atoms: S_8  and  C_9
REMARK    7  A    between atoms: C_9  and  C_10
REMARK    8  A    between atoms: C_10  and  O_11
REMARK    9  A    between atoms: C_10  and  C_12
REMARK   10  A    between atoms: C_12  and  O_13
REMARK   11  A    between atoms: C_12  and  C_14
REMARK   12  A    between atoms: N_16  and  O_17
REMARK                            x       y       z     vdW  Elec       q    Type
REMARK                         _______ _______ _______ _____ _____    ______ ____
ROOT
ATOM      1  C   UNK     1     -23.488  30.677 -16.935  0.00  0.00    +0.000 C 
ENDROOT
BRANCH   1   2
ATOM      2  S   UNK     1     -23.106  32.133 -15.894  0.00  0.00    +0.000 S 
BRANCH   2   3
ATOM      3  C   UNK     1     -21.519  31.604 -15.153  0.00  0.00    +0.000 C 
BRANCH   3   4
ATOM      4  C   UNK     1     -20.312  32.380 -15.688  0.00  0.00    +0.000 C 
BRANCH   4   5
ATOM      5  C   UNK     1     -20.480  33.895 -15.549  0.00  0.00    +0.000 C 
BRANCH   5   6
ATOM      6  N   UNK     1     -20.387  34.538 -16.868  0.00  0.00    +0.000 N 
ATOM      7  H   UNK     1     -21.322  34.636 -17.265  0.00  0.00    +0.000 HD
ATOM      8  H   UNK     1     -19.814  33.964 -17.487  0.00  0.00    +0.000 HD
ATOM      9  H   UNK     1     -19.961  35.459 -16.768  0.00  0.00    +0.000 HD
ENDBRANCH   5   6
BRANCH   5  11
ATOM     10  O   UNK     1     -19.733  35.476 -13.941  0.00  0.00    +0.000 OA
ATOM     11  C   UNK     1     -19.411  34.475 -14.618  0.00  0.00    +0.000 C 
ATOM     12  O   UNK     1     -18.298  33.907 -14.605  0.00  0.00    +0.000 OA
ENDBRANCH   5  11
ENDBRANCH   4   5
ENDBRANCH   3   4
ENDBRANCH   2   3
ENDBRANCH   1   2
BRANCH   1  13
ATOM     13  C   UNK     1     -24.973  30.600 -17.290  0.00  0.00    +0.000 C 
BRANCH  13  14
ATOM     14  O   UNK     1     -25.278  31.667 -18.193  0.00  0.00    +0.000 OA
ATOM     15  H   UNK     1     -25.470  31.302 -19.071  0.00  0.00    +0.000 HD
ENDBRANCH  13  14
BRANCH  13  16
ATOM     16  C   UNK     1     -25.340  29.269 -17.952  0.00  0.00    +0.000 C 
BRANCH  16  17
ATOM     17  C   UNK     1     -25.537  29.510 -19.450  0.00  0.00    +0.000 C 
ATOM     18  O   UNK     1     -26.647  29.787 -19.902  0.00  0.00    +0.000 OA
ATOM     19  N   UNK     1     -24.434  29.412 -20.187  0.00  0.00    +0.000 N 
ATOM     20  H   UNK     1     -23.575  29.195 -19.758  0.00  0.00    +0.000 HD
BRANCH  19  21
ATOM     21  O   UNK     1     -24.490  29.611 -21.531  0.00  0.00    +0.000 OA
ATOM     22  H   UNK     1     -23.934  28.954 -21.979  0.00  0.00    +0.000 HD
ENDBRANCH  19  21
ENDBRANCH  16  17
BRANCH  16  23
ATOM     23  O   UNK     1     -26.561  28.772 -17.399  0.00  0.00    +0.000 OA
ATOM     24  H   UNK     1     -26.622  27.817 -17.555  0.00  0.00    +0.000 HD
ENDBRANCH  16  23
ENDBRANCH  13  16
ENDBRANCH   1  13
TORSDOF 12
ENDMDL
MODEL 3
REMARK VINA RESULT:      -6.8      1.668      6.880
REMARK  Name = H1D
REMARK  12 active torsions:
REMARK  status: ('A' for Active; 'I' for Inactive)
REMARK    1  A    between atoms: C_2  and  C_4
REMARK    2  A    between atoms: C_4  and  N_5
REMARK    3  A    between atoms: C_4  and  C_6
REMARK    4  A    between atoms: C_6  and  C_7
REMARK    5  A    between atoms: C_7  and  S_8
REMARK    6  A    between atoms: S_8  and  C_9
REMARK    7  A    between atoms: C_9  and  C_10
REMARK    8  A    between atoms: C_10  and  O_11
REMARK    9  A    between atoms: C_10  and  C_12
REMARK   10  A    between atoms: C_12  and  O_13
REMARK   11  A    between atoms: C_12  and  C_14
REMARK   12  A    between atoms: N_16  and  O_17
REMARK                            x       y       z     vdW  Elec       q    Type
REMARK                         _______ _______ _______ _____ _____    ______ ____
ROOT
ATOM      1  C   UNK     1     -21.790  33.026 -16.178  0.00  0.00    +0.000 C 
ENDROOT
BRANCH   1   2
ATOM      2  S   UNK     1     -22.805  31.694 -15.438  0.00  0.00    +0.000 S 
BRANCH   2   3
ATOM      3  C   UNK     1     -23.422  30.869 -16.951  0.00  0.00    +0.000 C 
BRANCH   3   4
ATOM      4  C   UNK     1     -24.916  31.096 -17.199  0.00  0.00    +0.000 C 
BRANCH   4   5
ATOM      5  C   UNK     1     -25.618  29.848 -17.740  0.00  0.00    +0.000 C 
BRANCH   5   6
ATOM      6  N   UNK     1     -24.795  28.656 -17.492  0.00  0.00    +0.000 N 
ATOM      7  H   UNK     1     -23.910  28.936 -17.068  0.00  0.00    +0.000 HD
ATOM      8  H   UNK     1     -24.612  28.179 -18.375  0.00  0.00    +0.000 HD
ATOM      9  H   UNK     1     -25.290  28.026 -16.862  0.00  0.00    +0.000 HD
ENDBRANCH   5   6
BRANCH   5  11
ATOM     10  O   UNK     1     -26.989  30.468 -19.578  0.00  0.00    +0.000 OA
ATOM     11  C   UNK     1     -25.885  29.986 -19.242  0.00  0.00    +0.000 C 
ATOM     12  O   UNK     1     -24.981  29.607 -20.018  0.00  0.00    +0.000 OA
ENDBRANCH   5  11
ENDBRANCH   4   5
ENDBRANCH   3   4
ENDBRANCH   2   3
ENDBRANCH   1   2
BRANCH   1  13
ATOM     13  C   UNK     1     -20.415  33.130 -15.519  0.00  0.00    +0.000 C 
BRANCH  13  14
ATOM     14  O   UNK     1     -19.651  31.976 -15.882  0.00  0.00    +0.000 OA
ATOM     15  H   UNK     1     -20.251  31.255 -16.131  0.00  0.00    +0.000 HD
ENDBRANCH  13  14
BRANCH  13  16
ATOM     16  C   UNK     1     -19.657  34.385 -15.960  0.00  0.00    +0.000 C 
BRANCH  16  17
ATOM     17  C   UNK     1     -19.775  34.514 -17.480  0.00  0.00    +0.000 C 
ATOM     18  O   UNK     1     -20.451  35.408 -17.985  0.00  0.00    +0.000 OA
ATOM     19  N   UNK     1     -19.091  33.611 -18.177  0.00  0.00    +0.000 N 
ATOM     20  H   UNK     1     -18.563  32.926 -17.708  0.00  0.00    +0.000 HD
BRANCH  19  21
ATOM     21  O   UNK     1     -19.119  33.633 -19.537  0.00  0.00    +0.000 OA
ATOM     22  H   UNK     1     -19.566  32.835 -19.864  0.00  0.00    +0.000 HD
ENDBRANCH  19  21
ENDBRANCH  16  17
BRANCH  16  23
ATOM     23  O   UNK     1     -18.276  34.265 -15.612  0.00  0.00    +0.000 OA
ATOM     24  H   UNK     1     -18.136  33.441 -15.119  0.00  0.00    +0.000 HD
ENDBRANCH  16  23
ENDBRANCH  13  16
ENDBRANCH   1  13
TORSDOF 12
ENDMDL
MODEL 4
REMARK VINA RESULT:      -6.2      1.661      7.035
REMARK  Name = H1D
REMARK  12 active torsions:
REMARK  status: ('A' for Active; 'I' for Inactive)
REMARK    1  A    between atoms: C_2  and  C_4
REMARK    2  A    between atoms: C_4  and  N_5
REMARK    3  A    between atoms: C_4  and  C_6
REMARK    4  A    between atoms: C_6  and  C_7
REMARK    5  A    between atoms: C_7  and  S_8
REMARK    6  A    between atoms: S_8  and  C_9
REMARK    7  A    between atoms: C_9  and  C_10
REMARK    8  A    between atoms: C_10  and  O_11
REMARK    9  A    between atoms: C_10  and  C_12
REMARK   10  A    between atoms: C_12  and  O_13
REMARK   11  A    between atoms: C_12  and  C_14
REMARK   12  A    between atoms: N_16  and  O_17
REMARK                            x       y       z     vdW  Elec       q    Type
REMARK                         _______ _______ _______ _____ _____    ______ ____
ROOT
ATOM      1  C   UNK     1     -21.464  31.990 -15.509  0.00  0.00    +0.000 C 
ENDROOT
BRANCH   1   2
ATOM      2  S   UNK     1     -22.686  31.969 -16.871  0.00  0.00    +0.000 S 
BRANCH   2   3
ATOM      3  C   UNK     1     -23.171  30.204 -16.854  0.00  0.00    +0.000 C 
BRANCH   3   4
ATOM      4  C   UNK     1     -23.749  29.722 -18.187  0.00  0.00    +0.000 C 
BRANCH   4   5
ATOM      5  C   UNK     1     -25.274  29.837 -18.242  0.00  0.00    +0.000 C 
BRANCH   5   6
ATOM      6  N   UNK     1     -25.893  28.744 -17.478  0.00  0.00    +0.000 N 
ATOM      7  H   UNK     1     -25.927  27.903 -18.054  0.00  0.00    +0.000 HD
ATOM      8  H   UNK     1     -26.840  29.011 -17.209  0.00  0.00    +0.000 HD
ATOM      9  H   UNK     1     -25.341  28.561 -16.640  0.00  0.00    +0.000 HD
ENDBRANCH   5   6
BRANCH   5  11
ATOM     10  O   UNK     1     -24.899  29.671 -20.581  0.00  0.00    +0.000 OA
ATOM     11  C   UNK     1     -25.768  29.796 -19.691  0.00  0.00    +0.000 C 
ATOM     12  O   UNK     1     -27.000  29.888 -19.875  0.00  0.00    +0.000 OA
ENDBRANCH   5  11
ENDBRANCH   4   5
ENDBRANCH   3   4
ENDBRANCH   2   3
ENDBRANCH   1   2
BRANCH   1  13
ATOM     13  C   UNK     1     -20.300  32.938 -15.799  0.00  0.00    +0.000 C 
BRANCH  13  14
ATOM     14  O   UNK     1     -19.180  32.159 -16.231  0.00  0.00    +0.000 OA
ATOM     15  H   UNK     1     -19.441  31.228 -16.302  0.00  0.00    +0.000 HD
ENDBRANCH  13  14
BRANCH  13  16
ATOM     16  C   UNK     1     -20.644  33.959 -16.887  0.00  0.00    +0.000 C 
BRANCH  16  17
ATOM     17  C   UNK     1     -19.424  34.131 -17.794  0.00  0.00    +0.000 C 
ATOM     18  O   UNK     1     -19.450  33.750 -18.963  0.00  0.00    +0.000 OA
ATOM     19  N   UNK     1     -18.377  34.723 -17.225  0.00  0.00    +0.000 N 
ATOM     20  H   UNK     1     -18.428  35.011 -16.285  0.00  0.00    +0.000 HD
BRANCH  19  21
ATOM     21  O   UNK     1     -17.238  34.932 -17.939  0.00  0.00    +0.000 OA
ATOM     22  H   UNK     1     -17.215  34.326 -18.696  0.00  0.00    +0.000 HD
ENDBRANCH  19  21
ENDBRANCH  16  17
BRANCH  16  23
ATOM     23  O   UNK     1     -20.957  35.219 -16.289  0.00  0.00    +0.000 OA
ATOM     24  H   UNK     1     -21.653  35.657 -16.804  0.00  0.00    +0.000 HD
ENDBRANCH  16  23
ENDBRANCH  13  16
ENDBRANCH   1  13
TORSDOF 12
ENDMDL
MODEL 5
REMARK VINA RESULT:      -6.2      1.702      2.342
REMARK  Name = H1D
REMARK  12 active torsions:
REMARK  status: ('A' for Active; 'I' for Inactive)
REMARK    1  A    between atoms: C_2  and  C_4
REMARK    2  A    between atoms: C_4  and  N_5
REMARK    3  A    between atoms: C_4  and  C_6
REMARK    4  A    between atoms: C_6  and  C_7
REMARK    5  A    between atoms: C_7  and  S_8
REMARK    6  A    between atoms: S_8  and  C_9
REMARK    7  A    between atoms: C_9  and  C_10
REMARK    8  A    between atoms: C_10  and  O_11
REMARK    9  A    between atoms: C_10  and  C_12
REMARK   10  A    between atoms: C_12  and  O_13
REMARK   11  A    between atoms: C_12  and  C_14
REMARK   12  A    between atoms: N_16  and  O_17
REMARK                            x       y       z     vdW  Elec       q    Type
REMARK                         _______ _______ _______ _____ _____    ______ ____
ROOT
ATOM      1  C   UNK     1     -22.018  30.898 -15.901  0.00  0.00    +0.000 C 
ENDROOT
BRANCH   1   2
ATOM      2  S   UNK     1     -21.895  31.920 -14.388  0.00  0.00    +0.000 S 
BRANCH   2   3
ATOM      3  C   UNK     1     -20.255  32.693 -14.644  0.00  0.00    +0.000 C 
BRANCH   3   4
ATOM      4  C   UNK     1     -19.786  32.649 -16.100  0.00  0.00    +0.000 C 
BRANCH   4   5
ATOM      5  C   UNK     1     -19.150  33.966 -16.553  0.00  0.00    +0.000 C 
BRANCH   5   6
ATOM      6  N   UNK     1     -19.358  35.005 -15.535  0.00  0.00    +0.000 N 
ATOM      7  H   UNK     1     -19.927  35.756 -15.927  0.00  0.00    +0.000 HD
ATOM      8  H   UNK     1     -18.456  35.380 -15.241  0.00  0.00    +0.000 HD
ATOM      9  H   UNK     1     -19.837  34.601 -14.730  0.00  0.00    +0.000 HD
ENDBRANCH   5   6
BRANCH   5  11
ATOM     10  O   UNK     1     -19.369  33.819 -18.914  0.00  0.00    +0.000 OA
ATOM     11  C   UNK     1     -19.747  34.425 -17.887  0.00  0.00    +0.000 C 
ATOM     12  O   UNK     1     -20.565  35.368 -17.849  0.00  0.00    +0.000 OA
ENDBRANCH   5  11
ENDBRANCH   4   5
ENDBRANCH   3   4
ENDBRANCH   2   3
ENDBRANCH   1   2
BRANCH   1  13
ATOM     13  C   UNK     1     -23.039  31.461 -16.890  0.00  0.00    +0.000 C 
BRANCH  13  14
ATOM     14  O   UNK     1     -23.009  30.662 -18.076  0.00  0.00    +0.000 OA
ATOM     15  H   UNK     1     -22.476  29.867 -17.917  0.00  0.00    +0.000 HD
ENDBRANCH  13  14
BRANCH  13  16
ATOM     16  C   UNK     1     -24.461  31.450 -16.321  0.00  0.00    +0.000 C 
BRANCH  16  17
ATOM     17  C   UNK     1     -25.418  30.974 -17.416  0.00  0.00    +0.000 C 
ATOM     18  O   UNK     1     -25.782  31.737 -18.309  0.00  0.00    +0.000 OA
ATOM     19  N   UNK     1     -25.793  29.702 -17.323  0.00  0.00    +0.000 N 
ATOM     20  H   UNK     1     -25.456  29.144 -16.585  0.00  0.00    +0.000 HD
BRANCH  19  21
ATOM     21  O   UNK     1     -26.639  29.169 -18.245  0.00  0.00    +0.000 OA
ATOM     22  H   UNK     1     -27.425  28.817 -17.798  0.00  0.00    +0.000 HD
ENDBRANCH  19  21
ENDBRANCH  16  17
BRANCH  16  23
ATOM     23  O   UNK     1     -24.834  32.772 -15.923  0.00  0.00    +0.000 OA
ATOM     24  H   UNK     1     -24.044  33.334 -15.885  0.00  0.00    +0.000 HD
ENDBRANCH  16  23
ENDBRANCH  13  16
ENDBRANCH   1  13
TORSDOF 12
ENDMDL
MODEL 6
REMARK VINA RESULT:      -6.0      1.864      6.860
REMARK  Name = H1D
REMARK  12 active torsions:
REMARK  status: ('A' for Active; 'I' for Inactive)
REMARK    1  A    between atoms: C_2  and  C_4
REMARK    2  A    between atoms: C_4  and  N_5
REMARK    3  A    between atoms: C_4  and  C_6
REMARK    4  A    between atoms: C_6  and  C_7
REMARK    5  A    between atoms: C_7  and  S_8
REMARK    6  A    between atoms: S_8  and  C_9
REMARK    7  A    between atoms: C_9  and  C_10
REMARK    8  A    between atoms: C_10  and  O_11
REMARK    9  A    between atoms: C_10  and  C_12
REMARK   10  A    between atoms: C_12  and  O_13
REMARK   11  A    between atoms: C_12  and  C_14
REMARK   12  A    between atoms: N_16  and  O_17
REMARK                            x       y       z     vdW  Elec       q    Type
REMARK                         _______ _______ _______ _____ _____    ______ ____
ROOT
ATOM      1  C   UNK     1     -21.329  33.221 -15.812  0.00  0.00    +0.000 C 
ENDROOT
BRANCH   1   2
ATOM      2  S   UNK     1     -22.099  31.909 -14.794  0.00  0.00    +0.000 S 
BRANCH   2   3
ATOM      3  C   UNK     1     -23.637  31.614 -15.742  0.00  0.00    +0.000 C 
BRANCH   3   4
ATOM      4  C   UNK     1     -23.508  30.485 -16.768  0.00  0.00    +0.000 C 
BRANCH   4   5
ATOM      5  C   UNK     1     -24.440  30.672 -17.968  0.00  0.00    +0.000 C 
BRANCH   5   6
ATOM      6  N   UNK     1     -25.288  31.857 -17.770  0.00  0.00    +0.000 N 
ATOM      7  H   UNK     1     -26.247  31.561 -17.585  0.00  0.00    +0.000 HD
ATOM      8  H   UNK     1     -25.266  32.435 -18.610  0.00  0.00    +0.000 HD
ATOM      9  H   UNK     1     -24.939  32.396 -16.977  0.00  0.00    +0.000 HD
ENDBRANCH   5   6
BRANCH   5  11
ATOM     10  O   UNK     1     -24.809  28.467 -18.769  0.00  0.00    +0.000 OA
ATOM     11  C   UNK     1     -25.321  29.436 -18.167  0.00  0.00    +0.000 C 
ATOM     12  O   UNK     1     -26.484  29.487 -17.714  0.00  0.00    +0.000 OA
ENDBRANCH   5  11
ENDBRANCH   4   5
ENDBRANCH   3   4
ENDBRANCH   2   3
ENDBRANCH   1   2
BRANCH   1  13
ATOM     13  C   UNK     1     -19.864  33.449 -15.440  0.00  0.00    +0.000 C 
BRANCH  13  14
ATOM     14  O   UNK     1     -19.104  32.320 -15.881  0.00  0.00    +0.000 OA
ATOM     15  H   UNK     1     -18.162  32.548 -15.890  0.00  0.00    +0.000 HD
ENDBRANCH  13  14
BRANCH  13  16
ATOM     16  C   UNK     1     -19.295  34.714 -16.087  0.00  0.00    +0.000 C 
BRANCH  16  17
ATOM     17  C   UNK     1     -19.602  34.674 -17.585  0.00  0.00    +0.000 C 
ATOM     18  O   UNK     1     -20.434  35.435 -18.077  0.00  0.00    +0.000 OA
ATOM     19  N   UNK     1     -18.902  33.784 -18.281  0.00  0.00    +0.000 N 
ATOM     20  H   UNK     1     -18.245  33.210 -17.823  0.00  0.00    +0.000 HD
BRANCH  19  21
ATOM     21  O   UNK     1     -19.090  33.663 -19.623  0.00  0.00    +0.000 OA
ATOM     22  H   UNK     1     -19.378  34.515 -19.987  0.00  0.00    +0.000 HD
ENDBRANCH  19  21
ENDBRANCH  16  17
BRANCH  16  23
ATOM     23  O   UNK     1     -17.877  34.755 -15.907  0.00  0.00    +0.000 OA
ATOM     24  H   UNK     1     -17.453  34.157 -16.541  0.00  0.00    +0.000 HD
ENDBRANCH  16  23
ENDBRANCH  13  16
ENDBRANCH   1  13
TORSDOF 12
ENDMDL
MODEL 7
REMARK VINA RESULT:      -5.9      1.528      1.962
REMARK  Name = H1D
REMARK  12 active torsions:
REMARK  status: ('A' for Active; 'I' for Inactive)
REMARK    1  A    between atoms: C_2  and  C_4
REMARK    2  A    between atoms: C_4  and  N_5
REMARK    3  A    between atoms: C_4  and  C_6
REMARK    4  A    between atoms: C_6  and  C_7
REMARK    5  A    between atoms: C_7  and  S_8
REMARK    6  A    between atoms: S_8  and  C_9
REMARK    7  A    between atoms: C_9  and  C_10
REMARK    8  A    between atoms: C_10  and  O_11
REMARK    9  A    between atoms: C_10  and  C_12
REMARK   10  A    between atoms: C_12  and  O_13
REMARK   11  A    between atoms: C_12  and  C_14
REMARK   12  A    between atoms: N_16  and  O_17
REMARK                            x       y       z     vdW  Elec       q    Type
REMARK                         _______ _______ _______ _____ _____    ______ ____
ROOT
ATOM      1  C   UNK     1     -23.949  29.992 -17.231  0.00  0.00    +0.000 C 
ENDROOT
BRANCH   1   2
ATOM      2  S   UNK     1     -22.970  31.521 -16.996  0.00  0.00    +0.000 S 
BRANCH   2   3
ATOM      3  C   UNK     1     -22.534  31.366 -15.225  0.00  0.00    +0.000 C 
BRANCH   3   4
ATOM      4  C   UNK     1     -21.645  32.504 -14.718  0.00  0.00    +0.000 C 
BRANCH   4   5
ATOM      5  C   UNK     1     -20.172  32.307 -15.087  0.00  0.00    +0.000 C 
BRANCH   5   6
ATOM      6  N   UNK     1     -19.318  32.565 -13.918  0.00  0.00    +0.000 N 
ATOM      7  H   UNK     1     -18.357  32.300 -14.134  0.00  0.00    +0.000 HD
ATOM      8  H   UNK     1     -19.652  32.017 -13.125  0.00  0.00    +0.000 HD
ATOM      9  H   UNK     1     -19.353  33.557 -13.685  0.00  0.00    +0.000 HD
ENDBRANCH   5   6
BRANCH   5  11
ATOM     10  O   UNK     1     -20.402  34.318 -16.331  0.00  0.00    +0.000 OA
ATOM     11  C   UNK     1     -19.771  33.242 -16.232  0.00  0.00    +0.000 C 
ATOM     12  O   UNK     1     -18.847  32.862 -16.981  0.00  0.00    +0.000 OA
ENDBRANCH   5  11
ENDBRANCH   4   5
ENDBRANCH   3   4
ENDBRANCH   2   3
ENDBRANCH   1   2
BRANCH   1  13
ATOM     13  C   UNK     1     -25.290  30.271 -17.910  0.00  0.00    +0.000 C 
BRANCH  13  14
ATOM     14  O   UNK     1     -25.232  31.567 -18.512  0.00  0.00    +0.000 OA
ATOM     15  H   UNK     1     -25.669  31.542 -19.377  0.00  0.00    +0.000 HD
ENDBRANCH  13  14
BRANCH  13  16
ATOM     16  C   UNK     1     -25.616  29.236 -18.990  0.00  0.00    +0.000 C 
BRANCH  16  17
ATOM     17  C   UNK     1     -24.635  29.419 -20.149  0.00  0.00    +0.000 C 
ATOM     18  O   UNK     1     -25.034  29.458 -21.312  0.00  0.00    +0.000 OA
ATOM     19  N   UNK     1     -23.359  29.543 -19.794  0.00  0.00    +0.000 N 
ATOM     20  H   UNK     1     -23.110  29.510 -18.842  0.00  0.00    +0.000 HD
BRANCH  19  21
ATOM     21  O   UNK     1     -22.399  29.715 -20.742  0.00  0.00    +0.000 OA
ATOM     22  H   UNK     1     -21.524  29.698 -20.323  0.00  0.00    +0.000 HD
ENDBRANCH  19  21
ENDBRANCH  16  17
BRANCH  16  23
ATOM     23  O   UNK     1     -26.946  29.441 -19.474  0.00  0.00    +0.000 OA
ATOM     24  H   UNK     1     -26.921  30.021 -20.251  0.00  0.00    +0.000 HD
ENDBRANCH  16  23
ENDBRANCH  13  16
ENDBRANCH   1  13
TORSDOF 12
ENDMDL
MODEL 8
REMARK VINA RESULT:      -5.8      1.605      6.927
REMARK  Name = H1D
REMARK  12 active torsions:
REMARK  status: ('A' for Active; 'I' for Inactive)
REMARK    1  A    between atoms: C_2  and  C_4
REMARK    2  A    between atoms: C_4  and  N_5
REMARK    3  A    between atoms: C_4  and  C_6
REMARK    4  A    between atoms: C_6  and  C_7
REMARK    5  A    between atoms: C_7  and  S_8
REMARK    6  A    between atoms: S_8  and  C_9
REMARK    7  A    between atoms: C_9  and  C_10
REMARK    8  A    between atoms: C_10  and  O_11
REMARK    9  A    between atoms: C_10  and  C_12
REMARK   10  A    between atoms: C_12  and  O_13
REMARK   11  A    between atoms: C_12  and  C_14
REMARK   12  A    between atoms: N_16  and  O_17
REMARK                            x       y       z     vdW  Elec       q    Type
REMARK                         _______ _______ _______ _____ _____    ______ ____
ROOT
ATOM      1  C   UNK     1     -22.027  32.970 -15.521  0.00  0.00    +0.000 C 
ENDROOT
BRANCH   1   2
ATOM      2  S   UNK     1     -22.571  31.349 -16.174  0.00  0.00    +0.000 S 
BRANCH   2   3
ATOM      3  C   UNK     1     -23.993  31.868 -17.203  0.00  0.00    +0.000 C 
BRANCH   3   4
ATOM      4  C   UNK     1     -25.155  30.870 -17.178  0.00  0.00    +0.000 C 
BRANCH   4   5
ATOM      5  C   UNK     1     -25.137  29.917 -18.376  0.00  0.00    +0.000 C 
BRANCH   5   6
ATOM      6  N   UNK     1     -23.778  29.826 -18.930  0.00  0.00    +0.000 N 
ATOM      7  H   UNK     1     -23.483  30.745 -19.259  0.00  0.00    +0.000 HD
ATOM      8  H   UNK     1     -23.772  29.167 -19.709  0.00  0.00    +0.000 HD
ATOM      9  H   UNK     1     -23.137  29.502 -18.205  0.00  0.00    +0.000 HD
ENDBRANCH   5   6
BRANCH   5  11
ATOM     10  O   UNK     1     -26.046  29.810 -20.567  0.00  0.00    +0.000 OA
ATOM     11  C   UNK     1     -26.104  30.395 -19.463  0.00  0.00    +0.000 C 
ATOM     12  O   UNK     1     -26.877  31.330 -19.166  0.00  0.00    +0.000 OA
ENDBRANCH   5  11
ENDBRANCH   4   5
ENDBRANCH   3   4
ENDBRANCH   2   3
ENDBRANCH   1   2
BRANCH   1  13
ATOM     13  C   UNK     1     -21.937  34.029 -16.620  0.00  0.00    +0.000 C 
BRANCH  13  14
ATOM     14  O   UNK     1     -22.052  35.320 -16.014  0.00  0.00    +0.000 OA
ATOM     15  H   UNK     1     -22.878  35.368 -15.508  0.00  0.00    +0.000 HD
ENDBRANCH  13  14
BRANCH  13  16
ATOM     16  C   UNK     1     -20.613  33.956 -17.384  0.00  0.00    +0.000 C 
BRANCH  16  17
ATOM     17  C   UNK     1     -19.502  33.592 -16.397  0.00  0.00    +0.000 C 
ATOM     18  O   UNK     1     -18.985  32.476 -16.416  0.00  0.00    +0.000 OA
ATOM     19  N   UNK     1     -19.151  34.562 -15.559  0.00  0.00    +0.000 N 
ATOM     20  H   UNK     1     -19.602  35.436 -15.604  0.00  0.00    +0.000 HD
BRANCH  19  21
ATOM     21  O   UNK     1     -18.171  34.351 -14.640  0.00  0.00    +0.000 OA
ATOM     22  H   UNK     1     -17.351  34.779 -14.937  0.00  0.00    +0.000 HD
ENDBRANCH  19  21
ENDBRANCH  16  17
BRANCH  16  23
ATOM     23  O   UNK     1     -20.316  35.229 -17.964  0.00  0.00    +0.000 OA
ATOM     24  H   UNK     1     -19.451  35.534 -17.650  0.00  0.00    +0.000 HD
ENDBRANCH  16  23
ENDBRANCH  13  16
ENDBRANCH   1  13
TORSDOF 12
ENDMDL
MODEL 9
REMARK VINA RESULT:      -5.8      2.246      6.705
REMARK  Name = H1D
REMARK  12 active torsions:
REMARK  status: ('A' for Active; 'I' for Inactive)
REMARK    1  A    between atoms: C_2  and  C_4
REMARK    2  A    between atoms: C_4  and  N_5
REMARK    3  A    between atoms: C_4  and  C_6
REMARK    4  A    between atoms: C_6  and  C_7
REMARK    5  A    between atoms: C_7  and  S_8
REMARK    6  A    between atoms: S_8  and  C_9
REMARK    7  A    between atoms: C_9  and  C_10
REMARK    8  A    between atoms: C_10  and  O_11
REMARK    9  A    between atoms: C_10  and  C_12
REMARK   10  A    between atoms: C_12  and  O_13
REMARK   11  A    between atoms: C_12  and  C_14
REMARK   12  A    between atoms: N_16  and  O_17
REMARK                            x       y       z     vdW  Elec       q    Type
REMARK                         _______ _______ _______ _____ _____    ______ ____
ROOT
ATOM      1  C   UNK     1     -22.893  32.820 -15.390  0.00  0.00    +0.000 C 
ENDROOT
BRANCH   1   2
ATOM      2  S   UNK     1     -24.520  32.205 -15.962  0.00  0.00    +0.000 S 
BRANCH   2   3
ATOM      3  C   UNK     1     -23.997  30.758 -16.953  0.00  0.00    +0.000 C 
BRANCH   3   4
ATOM      4  C   UNK     1     -25.134  30.146 -17.777  0.00  0.00    +0.000 C 
BRANCH   4   5
ATOM      5  C   UNK     1     -24.622  29.303 -18.948  0.00  0.00    +0.000 C 
BRANCH   5   6
ATOM      6  N   UNK     1     -23.226  29.651 -19.251  0.00  0.00    +0.000 N 
ATOM      7  H   UNK     1     -23.154  29.952 -20.224  0.00  0.00    +0.000 HD
ATOM      8  H   UNK     1     -22.632  28.835 -19.102  0.00  0.00    +0.000 HD
ATOM      9  H   UNK     1     -22.925  30.408 -18.638  0.00  0.00    +0.000 HD
ENDBRANCH   5   6
BRANCH   5  11
ATOM     10  O   UNK     1     -26.709  29.719 -20.003  0.00  0.00    +0.000 OA
ATOM     11  C   UNK     1     -25.488  29.523 -20.192  0.00  0.00    +0.000 C 
ATOM     12  O   UNK     1     -24.912  29.491 -21.300  0.00  0.00    +0.000 OA
ENDBRANCH   5  11
ENDBRANCH   4   5
ENDBRANCH   3   4
ENDBRANCH   2   3
ENDBRANCH   1   2
BRANCH   1  13
ATOM     13  C   UNK     1     -22.124  33.525 -16.507  0.00  0.00    +0.000 C 
BRANCH  13  14
ATOM     14  O   UNK     1     -22.756  34.782 -16.767  0.00  0.00    +0.000 OA
ATOM     15  H   UNK     1     -23.043  34.815 -17.693  0.00  0.00    +0.000 HD
ENDBRANCH  13  14
BRANCH  13  16
ATOM     16  C   UNK     1     -20.660  33.774 -16.132  0.00  0.00    +0.000 C 
BRANCH  16  17
ATOM     17  C   UNK     1     -20.265  32.782 -15.036  0.00  0.00    +0.000 C 
ATOM     18  O   UNK     1     -20.042  33.167 -13.890  0.00  0.00    +0.000 OA
ATOM     19  N   UNK     1     -20.203  31.511 -15.422  0.00  0.00    +0.000 N 
ATOM     20  H   UNK     1     -20.402  31.271 -16.356  0.00  0.00    +0.000 HD
BRANCH  19  21
ATOM     21  O   UNK     1     -19.865  30.541 -14.529  0.00  0.00    +0.000 OA
ATOM     22  H   UNK     1     -18.903  30.540 -14.401  0.00  0.00    +0.000 HD
ENDBRANCH  19  21
ENDBRANCH  16  17
BRANCH  16  23
ATOM     23  O   UNK     1     -20.507  35.103 -15.629  0.00  0.00    +0.000 OA
ATOM     24  H   UNK     1     -19.630  35.198 -15.226  0.00  0.00    +0.000 HD
ENDBRANCH  16  23
ENDBRANCH  13  16
ENDBRANCH   1  13
TORSDOF 12
ENDMDL
