ligand_H1D.pdb|ligand_H1D|sdf|1|dock6
  -GOLD-   6 92413 63D 1   1.00000     0.00000

 33 32  0  0  0  0  0  0  0  0  3 V2000
  -26.5237   28.7840  -18.5537 O   0  0  0  0  0  0  0  0  0  0  0  0
  -26.3013   30.0105  -18.6578 C   0  0  0  0  0  0  0  0  0  0  0  0
  -26.7461   30.7648  -19.5485 O   0  5  0  0  0  0  0  0  0  0  0  0
  -25.4010   30.6433  -17.5929 C   0  0  1  0  0  0  0  0  0  0  0  0
  -24.1085   29.9433  -17.5599 N   0  3  0  0  0  0  0  0  0  0  0  0
  -25.1870   32.1318  -17.8799 C   0  0  0  0  0  0  0  0  0  0  0  0
  -25.5413   33.0180  -16.6827 C   0  0  0  0  0  0  0  0  0  0  0  0
  -24.6532   32.5546  -15.1510 S   0  0  0  0  0  0  0  0  0  0  0  0
  -22.9767   32.2500  -15.8198 C   0  0  0  0  0  0  0  0  0  0  0  0
  -21.8928   32.4502  -14.7603 C   0  0  1  0  0  0  0  0  0  0  0  0
  -22.3029   31.7839  -13.5625 O   0  0  0  0  0  0  0  0  0  0  0  0
  -20.5407   31.8856  -15.2041 C   0  0  1  0  0  0  0  0  0  0  0  0
  -19.6012   31.9753  -14.1300 O   0  0  0  0  0  0  0  0  0  0  0  0
  -20.7280   30.4135  -15.5758 C   0  0  0  0  0  0  0  0  0  0  0  0
  -20.5095   30.0210  -16.7209 O   0  0  0  0  0  0  0  0  0  0  0  0
  -21.1195   29.6253  -14.5793 N   0  0  0  0  0  0  0  0  0  0  0  0
  -21.3138   28.2960  -14.7941 O   0  0  0  0  0  0  0  0  0  0  0  0
  -25.8783   30.5515  -16.6397 H   0  0  0  0  0  0  0  0  0  0  0  0
  -24.2603   28.9429  -17.6887 H   0  0  0  0  0  0  0  0  0  0  0  0
  -23.6568   30.1056  -16.6599 H   0  0  0  0  0  0  0  0  0  0  0  0
  -23.5118   30.2958  -18.3083 H   0  0  0  0  0  0  0  0  0  0  0  0
  -25.8024   32.4131  -18.7088 H   0  0  0  0  0  0  0  0  0  0  0  0
  -24.1484   32.2751  -18.0936 H   0  0  0  0  0  0  0  0  0  0  0  0
  -26.5931   32.9403  -16.5022 H   0  0  0  0  0  0  0  0  0  0  0  0
  -25.2474   34.0168  -16.9297 H   0  0  0  0  0  0  0  0  0  0  0  0
  -22.9259   31.2439  -16.1801 H   0  0  0  0  0  0  0  0  0  0  0  0
  -22.8023   32.9524  -16.6079 H   0  0  0  0  0  0  0  0  0  0  0  0
  -21.7704   33.5013  -14.6018 H   0  0  0  0  0  0  0  0  0  0  0  0
  -21.5256   31.4125  -13.1167 H   0  0  0  0  0  0  0  0  0  0  0  0
  -20.1749   32.4424  -16.0413 H   0  0  0  0  0  0  0  0  0  0  0  0
  -19.8707   31.3789  -13.4141 H   0  0  0  0  0  0  0  0  0  0  0  0
  -21.2692   30.0046  -13.6832 H   0  0  0  0  0  0  0  0  0  0  0  0
  -22.2639   28.1166  -14.8724 H   0  0  0  0  0  0  0  0  0  0  0  0
  1  2  2  0  0  0  0
  2  3  1  0  0  0  0
  4  2  1  0  0  0  0
  4  5  1  0  0  0  0
  4 18  1  0  0  0  0
  5 19  1  0  0  0  0
  5 20  1  0  0  0  0
  5 21  1  0  0  0  0
  6  4  1  0  0  0  0
  6  7  1  0  0  0  0
  6 22  1  0  0  0  0
  6 23  1  0  0  0  0
  7 24  1  0  0  0  0
  7 25  1  0  0  0  0
  8  7  1  0  0  0  0
  9  8  1  0  0  0  0
  9 26  1  0  0  0  0
  9 27  1  0  0  0  0
 10  9  1  0  0  0  0
 10 28  1  0  0  0  0
 11 10  1  0  0  0  0
 11 29  1  0  0  0  0
 12 10  1  0  0  0  0
 12 13  1  0  0  0  0
 12 30  1  0  0  0  0
 13 31  1  0  0  0  0
 14 12  1  0  0  0  0
 15 14  2  0  0  0  0
 16 14  1  0  0  0  0
 16 32  1  0  0  0  0
 17 16  1  0  0  0  0
 17 33  1  0  0  0  0
M  CHG  1   3  -1
M  CHG  1   5   1
M  END
> <Gold.Version>
5.8.1

> <Gold.Id.Protein>
ID|2FQT|mol2

> <Gold.PLP.Fitness>
69.2991

> <Gold.PLP.PLP>
-33.5004

> <Gold.PLP.part.hbond>
-7.5518

> <Gold.PLP.part.metal>
-2.0000

> <Gold.PLP.part.buried>
-2.6001

> <Gold.PLP.part.nonpolar>
-22.0026

> <Gold.PLP.part.repulsive>
0.2542

> <Gold.PLP.ligand.clash>
0.0000

> <Gold.PLP.ligand.torsion>
1.1003

> <Gold.PLP.Chemscore.Hbond>
4.6392

> <Gold.PLP.Chemscore.CHOScore>
0.0000

> <Gold.PLP.Chemscore.Metal>
3.9703

> <Gold.Chemscore.Hbonds>
donor molecule, donor type, donor heavy atom, donor atom, acceptor molecule, acceptor atom, score
      L1  H    11    29       P1   611  1.00
      L1  H    13    31       P1   611  1.00
      L1  H    16    32       P1   611  1.00
      L1  H    17    33       P1   427  1.00
      P1  H   621  1849       L1    17  0.64
      P1  M  1222  1222       L1     1  2.00
      P1  M  1222  1222       L1     3  1.97

> <Gold.PLP.Chemscore.Internal.Correction>
0.2597

> <Gold.Protein.RotatedTorsions>
[ 1849  621  620  617 ] final  -96.80 input   60.00 | X-H torsion

> <Gold.Protein.ActiveResidues>
 HIS54   GLU57   HIS58   ALA61   PHE62   ILE76   ILE77   ASP78   ILE79   SER80  
 PRO81   GLN125  CYS126  GLY127  GLN128  HIS132  CO701  

> <Gold.Protein.RotatedAtoms>
  -19.5214   27.6596  -13.9923 H   0  0  0  0  0  0  0  0  0  0  0  0  # atno 1849 bound_to 621 
  -17.9933   27.7023  -13.4343 LP  0  0  0  0  0  0  0  0  0  0  0  0  # atno 2431 bound_to 621 
  -19.0625   28.8515  -12.9838 LP  0  0  0  0  0  0  0  0  0  0  0  0  # atno 2432 bound_to 621 

$$$$
