#REMARK Cluster   1 of Poses:  1 Score: -7.81 kcal/mol
@<TRIPOS>MOLECULE
ligand_H1D.pdb
 33 32 0 0 0
SMALL
GASTEIGER

@<TRIPOS>ATOM
      1 O1        -18.8750   33.2900  -15.7790 O.co2   1  H1D        -0.5442
      2 C1        -19.4920   32.7130  -14.8560 C.2     1  H1D         0.0894
      3 O2        -19.5490   33.0860  -13.6650 O.co2   1  H1D        -0.5442
      4 C2        -20.2460   31.4320  -15.2240 C.3     1  H1D         0.0167
      5 N1        -19.8320   30.3410  -14.3300 N.4     1  H1D         0.2249
      6 C3        -21.7590   31.6480  -15.1260 C.3     1  H1D         0.0047
      7 C4        -22.2540   32.7660  -16.0470 C.3     1  H1D        -0.0008
      8 S1        -24.0760   32.8220  -16.2040 S.3     1  H1D        -0.1579
      9 C5        -24.4550   31.0330  -16.3020 C.3     1  H1D         0.0227
     10 C6        -24.6040   30.5580  -17.7480 C.3     1  H1D         0.0986
     11 O3        -23.3640   29.9770  -18.1630 O.3     1  H1D        -0.3879
     12 C7        -25.7160   29.5170  -17.9010 C.3     1  H1D         0.1592
     13 O4        -26.7920   29.8210  -17.0110 O.3     1  H1D        -0.3799
     14 C8        -26.2340   29.5690  -19.3390 C.2     1  H1D         0.2666
     15 O5        -27.3460   30.0290  -19.5910 O.2     1  H1D        -0.2708
     16 N2        -25.3940   29.1010  -20.2590 N.am    1  H1D        -0.1953
     17 O6        -25.7480   29.1020  -21.5720 O.3     1  H1D        -0.2951
     18 H1        -20.0100   31.1710  -16.2340 H       1  H1D         0.0915
     19 H2        -20.5900   30.1260  -13.6820 H       1  H1D         0.2001
     20 H3        -19.0060   30.6280  -13.8040 H       1  H1D         0.2001
     21 H4        -19.6120   29.5130  -14.8830 H       1  H1D         0.2001
     22 H5        -22.0040   31.9020  -14.1160 H       1  H1D         0.0332
     23 H6        -22.2370   30.7410  -15.4310 H       1  H1D         0.0332
     24 H7        -21.8340   32.6160  -17.0200 H       1  H1D         0.0378
     25 H8        -21.9450   33.6940  -15.6140 H       1  H1D         0.0378
     26 H9        -23.6600   30.4860  -15.8390 H       1  H1D         0.0402
     27 H10       -25.3850   30.8640  -15.8010 H       1  H1D         0.0402
     28 H11       -24.8630   31.4020  -18.3520 H       1  H1D         0.0632
     29 H12       -23.0670   29.3380  -17.4960 H       1  H1D         0.2099
     30 H13       -25.3320   28.5440  -17.6730 H       1  H1D         0.0717
     31 H14       -27.6310   29.7960  -17.4970 H       1  H1D         0.2105
     32 H15       -24.5140   28.7530  -19.9880 H       1  H1D         0.1823
     33 H16       -25.7080   30.0080  -21.9170 H       1  H1D         0.2414
@<TRIPOS>BOND
     1    17    16    1
     2    16    14   am
     3    15    14    2
     4    14    12    1
     5    11    10    1
     6    12    10    1
     7    12    13    1
     8    10     9    1
     9     9     8    1
    10     6     4    1
    11     6     7    1
    12     8     7    1
    13     1     2   ar
    14     4     2    1
    15     4     5    1
    16     2     3   ar
    17     4    18    1
    18     5    19    1
    19     5    20    1
    20     5    21    1
    21     6    22    1
    22     6    23    1
    23     7    24    1
    24     7    25    1
    25     9    26    1
    26     9    27    1
    27    10    28    1
    28    11    29    1
    29    12    30    1
    30    13    31    1
    31    16    32    1
    32    17    33    1
