Compound 1|Library_protonated|sdf|1|dock4
  -GOLD-   6122416143D 1   1.00000     0.00000

 34 34  0  0  0  0  0  0  0  0  3 V2000
  -22.7965   33.2686  -16.3428 S   0  0  0  0  0  0  0  0  0  0  0  0
  -21.5203   31.9758  -16.1591 C   0  0  0  0  0  0  0  0  0  0  0  0
  -24.2479   32.3445  -15.7316 C   0  0  0  0  0  0  0  0  0  0  0  0
  -20.0878   32.5137  -16.2550 C   0  0  1  0  0  0  0  0  0  0  0  0
  -25.1723   31.8621  -16.8576 C   0  0  0  0  0  0  0  0  0  0  0  0
  -19.9790   33.2330  -17.5087 O   0  0  0  0  0  0  0  0  0  0  0  0
  -19.7167   33.5053  -15.1450 C   0  0  1  0  0  0  0  0  0  0  0  0
  -24.8460   30.4886  -17.4622 C   0  0  2  0  0  0  0  0  0  0  0  0
  -19.6903   34.6060  -17.2245 C   0  0  2  0  0  0  0  0  0  0  0  0
  -18.2944   33.5270  -14.9188 O   0  0  0  0  0  0  0  0  0  0  0  0
  -20.1028   34.8306  -15.7676 C   0  0  2  0  0  0  0  0  0  0  0  0
  -23.6190   30.5636  -18.2860 N   0  3  0  0  0  0  0  0  0  0  0  0
  -25.9993   29.8666  -18.2588 C   0  0  0  0  0  0  0  0  0  0  0  0
  -20.4087   35.4593  -18.0996 O   0  0  0  0  0  0  0  0  0  0  0  0
  -19.4363   35.9378  -15.1699 O   0  0  0  0  0  0  0  0  0  0  0  0
  -26.5211   28.7801  -18.0547 O   0  0  0  0  0  0  0  0  0  0  0  0
  -26.5020   30.6957  -19.1964 O   0  5  0  0  0  0  0  0  0  0  0  0
  -21.6615   31.2483  -16.9309 H   0  0  0  0  0  0  0  0  0  0  0  0
  -21.6348   31.5568  -15.1812 H   0  0  0  0  0  0  0  0  0  0  0  0
  -24.8085   32.9824  -15.0806 H   0  0  0  0  0  0  0  0  0  0  0  0
  -23.8828   31.4759  -15.2245 H   0  0  0  0  0  0  0  0  0  0  0  0
  -19.4318   31.6725  -16.1713 H   0  0  0  0  0  0  0  0  0  0  0  0
  -25.1301   32.5841  -17.6462 H   0  0  0  0  0  0  0  0  0  0  0  0
  -26.1377   31.7550  -16.4089 H   0  0  0  0  0  0  0  0  0  0  0  0
  -20.1851   33.2726  -14.2115 H   0  0  0  0  0  0  0  0  0  0  0  0
  -24.6814   29.8330  -16.6327 H   0  0  0  0  0  0  0  0  0  0  0  0
  -18.6538   34.8292  -17.3686 H   0  0  0  0  0  0  0  0  0  0  0  0
  -17.9479   32.6216  -14.9518 H   0  0  0  0  0  0  0  0  0  0  0  0
  -21.1347   35.0845  -15.6420 H   0  0  0  0  0  0  0  0  0  0  0  0
  -23.2738   29.6212  -18.4683 H   0  0  0  0  0  0  0  0  0  0  0  0
  -22.9065   31.0961  -17.7870 H   0  0  0  0  0  0  0  0  0  0  0  0
  -23.8311   31.0251  -19.1706 H   0  0  0  0  0  0  0  0  0  0  0  0
  -20.5385   36.3221  -17.6757 H   0  0  0  0  0  0  0  0  0  0  0  0
  -20.0927   36.5505  -14.8028 H   0  0  0  0  0  0  0  0  0  0  0  0
  1  2  1  0  0  0  0
  1  3  1  0  0  0  0
  2  4  1  0  0  0  0
  2 18  1  0  0  0  0
  2 19  1  0  0  0  0
  3  5  1  0  0  0  0
  3 20  1  0  0  0  0
  3 21  1  0  0  0  0
  4  6  1  0  0  0  0
  4  7  1  0  0  0  0
  4 22  1  0  0  0  0
  5  8  1  0  0  0  0
  5 23  1  0  0  0  0
  5 24  1  0  0  0  0
  6  9  1  0  0  0  0
  7 10  1  0  0  0  0
  7 11  1  0  0  0  0
  7 25  1  0  0  0  0
  8 12  1  0  0  0  0
  8 13  1  0  0  0  0
  8 26  1  0  0  0  0
  9 14  1  0  0  0  0
  9 11  1  0  0  0  0
  9 27  1  0  0  0  0
 10 28  1  0  0  0  0
 11 15  1  0  0  0  0
 11 29  1  0  0  0  0
 12 30  1  0  0  0  0
 12 31  1  0  0  0  0
 12 32  1  0  0  0  0
 13 16  2  0  0  0  0
 13 17  1  0  0  0  0
 14 33  1  0  0  0  0
 15 34  1  0  0  0  0
M  CHG  1  12   1
M  CHG  1  17  -1
M  END
>  <Column 1>
N[C@@H](CCSC[C@H]1OC(O)[C@H](O)[C@@H]1O)C(=O)O

>  <Total Molweight>
267.301

>  <cLogP>
-4.0517

>  <cLogS>
-0.684

>  <H-Acceptors>
7

>  <H-Donors>
5

>  <Total Surface Area>
182.94

>  <MMFF94 Energy>
92.352

> <Gold.Version>
5.8.1

> <Gold.Id.Protein>
ID|2FQT|mol2

> <Gold.PLP.Fitness>
80.4357

> <Gold.PLP.PLP>
-42.9664

> <Gold.PLP.part.hbond>
-7.1261

> <Gold.PLP.part.metal>
-2.0000

> <Gold.PLP.part.buried>
-3.9374

> <Gold.PLP.part.nonpolar>
-30.3055

> <Gold.PLP.part.repulsive>
0.2076

> <Gold.PLP.ligand.clash>
0.0000

> <Gold.PLP.ligand.torsion>
0.7920

> <Gold.PLP.Chemscore.Hbond>
5.0000

> <Gold.PLP.Chemscore.CHOScore>
0.0000

> <Gold.PLP.Chemscore.Metal>
3.9726

> <Gold.Chemscore.Hbonds>
donor molecule, donor type, donor heavy atom, donor atom, acceptor molecule, acceptor atom, score
      L1  H    10    28       P1   606  1.00
      L1  H    12    32       P1  1244  1.00
      L1  H    14    33       P1  1223  1.00
      P1  H  1912  4380       L1     6  1.00
      P1  H  1239  3336       L1    14  1.00
      P1  M  1222  1222       L1    16  2.00
      P1  M  1222  1222       L1    17  1.97

> <Gold.PLP.Chemscore.Internal.Correction>
0.2176

> <Gold.Protein.RotatedTorsions>
[ 3412  950  949  948 ] final -175.48 input   60.00 | X-H torsion
[ 3476 1244 1243 1240 ] final  -62.30 input   60.00 | X-H torsion
[ 2649 1223 1224 1225 ] final   87.20 input   60.00 | X-H torsion
[ 4380 1912 1911 1909 ] final   76.25 input   60.00 | X-H torsion
[ 3084  621  620  617 ] final  114.23 input   60.00 | X-H torsion

> <Gold.Protein.ActiveResidues>
 HIS54   GLU57   HIS58   ALA61   PHE62   ILE64   ARG65   ASP75   ILE76   ILE77  
 ASP78   ILE79   SER80   PRO81   ILE118  PRO119  ALA120  ALA121  ASN122  LYS124 
 GLN125  CYS126  GLY127  CO701   VAL4    GLU5    SER6    PHE7    GLU8    LEU9   
 HIS11   ARG20   HIS21   CYS22   GLY23   VAL24   HIS25   LYS35   ARG39   MET82  
 GLY83   CYS84   TYR89  

> <Gold.Protein.RotatedAtoms>
  -20.2897   38.8031  -16.9799 H   0  0  0  0  0  0  0  0  0  0  0  0  # atno 2649 bound_to 1223
  -21.5028   38.1025  -16.0942 H   0  0  0  0  0  0  0  0  0  0  0  0  # atno 2650 bound_to 1223
  -17.9792   28.0807  -13.1558 H   0  0  0  0  0  0  0  0  0  0  0  0  # atno 3084 bound_to 621 
  -27.8140   38.7985  -29.5247 H   0  0  0  0  0  0  0  0  0  0  0  0  # atno 3412 bound_to 950 
  -28.9427   38.9807  -28.3246 H   0  0  0  0  0  0  0  0  0  0  0  0  # atno 3413 bound_to 950 
  -28.0739   37.5737  -28.4387 H   0  0  0  0  0  0  0  0  0  0  0  0  # atno 3414 bound_to 950 
  -24.3607   32.6165  -20.7333 H   0  0  0  0  0  0  0  0  0  0  0  0  # atno 3476 bound_to 1244
  -20.4347   31.7943  -18.8772 H   0  0  0  0  0  0  0  0  0  0  0  0  # atno 4380 bound_to 1912
  -23.5979   31.6110  -19.7061 LP  0  0  0  0  0  0  0  0  0  0  0  0  # atno 4866 bound_to 1244
  -23.0296   31.8186  -21.2228 LP  0  0  0  0  0  0  0  0  0  0  0  0  # atno 4867 bound_to 1244
  -20.8279   37.2953  -17.3591 LP  0  0  0  0  0  0  0  0  0  0  0  0  # atno 4874 bound_to 1223
  -21.1722   30.6619  -19.7837 LP  0  0  0  0  0  0  0  0  0  0  0  0  # atno 4875 bound_to 1912
  -19.8286   31.4070  -20.3369 LP  0  0  0  0  0  0  0  0  0  0  0  0  # atno 4876 bound_to 1912
  -19.4657   28.7413  -13.2025 LP  0  0  0  0  0  0  0  0  0  0  0  0  # atno 4881 bound_to 621 
  -19.1432   27.3882  -14.0579 LP  0  0  0  0  0  0  0  0  0  0  0  0  # atno 4882 bound_to 621 

$$$$
Compound 2|Library_protonated|sdf|2|dock1
  -GOLD-   6122416143D 1   1.00000     0.00000

 31 30  0  0  0  0  0  0  0  0  4 V2000
  -17.9861   33.9026  -19.0469 S   0  0  0  0  0  0  0  0  0  0  0  0
  -19.4707   34.3435  -18.0950 C   0  0  0  0  0  0  0  0  0  0  0  0
  -19.7637   33.3447  -16.9869 C   0  0  0  0  0  0  0  0  0  0  0  0
  -19.0024   33.2028  -16.0324 O   0  0  0  0  0  0  0  0  0  0  0  0
  -20.8875   32.5712  -17.1782 N   0  3  0  0  0  0  0  0  0  0  0  0
  -22.0116   32.5584  -16.2655 C   0  0  0  0  0  0  0  0  0  0  0  0
  -22.7266   31.2062  -16.2385 C   0  0  0  0  0  0  0  0  0  0  0  0
  -23.7097   30.9649  -17.3899 C   0  0  0  0  0  0  0  0  0  0  0  0
  -24.1585   29.5013  -17.5039 C   0  0  0  0  0  0  0  0  0  0  0  0
  -24.8073   29.1943  -18.8612 C   0  0  2  0  0  0  0  0  0  0  0  0
  -23.9039   29.6437  -19.9447 N   0  3  0  0  0  0  0  0  0  0  0  0
  -26.1846   29.8336  -19.0871 C   0  0  0  0  0  0  0  0  0  0  0  0
  -26.9891   29.4770  -19.9387 O   0  0  0  0  0  0  0  0  0  0  0  0
  -26.4661   30.8967  -18.3116 O   0  5  0  0  0  0  0  0  0  0  0  0
  -18.1271   34.3298  -20.3304 H   0  0  0  0  0  0  0  0  0  0  0  0
  -20.3087   34.3755  -18.7596 H   0  0  0  0  0  0  0  0  0  0  0  0
  -19.2965   35.2958  -17.6394 H   0  0  0  0  0  0  0  0  0  0  0  0
  -20.9284   31.9971  -17.9769 H   0  0  0  0  0  0  0  0  0  0  0  0
  -20.0210   32.2343  -16.8539 H   0  0  0  0  0  0  0  0  0  0  0  0
  -22.7097   33.3100  -16.5699 H   0  0  0  0  0  0  0  0  0  0  0  0
  -21.6351   32.7477  -15.2821 H   0  0  0  0  0  0  0  0  0  0  0  0
  -23.2699   31.1373  -15.3193 H   0  0  0  0  0  0  0  0  0  0  0  0
  -21.9624   30.4641  -16.3399 H   0  0  0  0  0  0  0  0  0  0  0  0
  -23.2361   31.2479  -18.3067 H   0  0  0  0  0  0  0  0  0  0  0  0
  -24.5826   31.5509  -17.1914 H   0  0  0  0  0  0  0  0  0  0  0  0
  -24.8682   29.2978  -16.7294 H   0  0  0  0  0  0  0  0  0  0  0  0
  -23.2893   28.8844  -17.4098 H   0  0  0  0  0  0  0  0  0  0  0  0
  -24.9634   28.1358  -18.8669 H   0  0  0  0  0  0  0  0  0  0  0  0
  -24.2707   29.3325  -20.8441 H   0  0  0  0  0  0  0  0  0  0  0  0
  -22.9758   29.2462  -19.8002 H   0  0  0  0  0  0  0  0  0  0  0  0
  -23.8429   30.6618  -19.9362 H   0  0  0  0  0  0  0  0  0  0  0  0
  1  2  1  0  0  0  0
  1 15  1  0  0  0  0
  2  3  1  0  0  0  0
  2 16  1  0  0  0  0
  2 17  1  0  0  0  0
  3  4  2  0  0  0  0
  3  5  1  0  0  0  0
  5  6  1  0  0  0  0
  5 18  1  0  0  0  0
  5 19  1  0  0  0  0
  6  7  1  0  0  0  0
  6 20  1  0  0  0  0
  6 21  1  0  0  0  0
  7  8  1  0  0  0  0
  7 22  1  0  0  0  0
  7 23  1  0  0  0  0
  8  9  1  0  0  0  0
  8 24  1  0  0  0  0
  8 25  1  0  0  0  0
  9 10  1  0  0  0  0
  9 26  1  0  0  0  0
  9 27  1  0  0  0  0
 10 11  1  0  0  0  0
 10 12  1  0  0  0  0
 10 28  1  0  0  0  0
 11 29  1  0  0  0  0
 11 30  1  0  0  0  0
 11 31  1  0  0  0  0
 12 13  2  0  0  0  0
 12 14  1  0  0  0  0
M  CHG  1   5   1
M  CHG  1  11   1
M  CHG  1  14  -1
M  END
>  <Column 1>
N[C@@H](CCCCNC(=O)CS)C(=O)O

>  <Total Molweight>
220.292

>  <cLogP>
-2.6114

>  <cLogS>
-1.64

>  <H-Acceptors>
5

>  <H-Donors>
3

>  <Total Surface Area>
172.49

>  <MMFF94 Energy>
27.112

> <Gold.Version>
5.8.1

> <Gold.Id.Protein>
ID|2FQT|mol2

> <Gold.PLP.Fitness>
71.8490

> <Gold.PLP.PLP>
-40.5235

> <Gold.PLP.part.hbond>
-4.0000

> <Gold.PLP.part.metal>
-2.0000

> <Gold.PLP.part.buried>
-3.4895

> <Gold.PLP.part.nonpolar>
-32.3524

> <Gold.PLP.part.repulsive>
0.3758

> <Gold.PLP.ligand.clash>
0.0000

> <Gold.PLP.ligand.torsion>
0.9865

> <Gold.PLP.Chemscore.Hbond>
3.0000

> <Gold.PLP.Chemscore.CHOScore>
0.0000

> <Gold.PLP.Chemscore.Metal>
3.9897

> <Gold.Chemscore.Hbonds>
donor molecule, donor type, donor heavy atom, donor atom, acceptor molecule, acceptor atom, score
      L1  H     5    18       P1  1912  1.00
      L1  H    11    31       P1  1244  1.00
      P1  H   966  3428       L1    13  1.00
      P1  M  1222  1222       L1    13  1.99
      P1  M  1222  1222       L1    14  2.00

> <Gold.PLP.Chemscore.Internal.Correction>
0.3601

> <Gold.Protein.RotatedTorsions>
[ 3412  950  949  948 ] final  130.81 input   60.00 | X-H torsion
[ 3476 1244 1243 1240 ] final   12.12 input   60.00 | X-H torsion
[ 2649 1223 1224 1225 ] final -161.68 input   60.00 | X-H torsion
[ 4380 1912 1911 1909 ] final -173.27 input   60.00 | X-H torsion
[ 3084  621  620  617 ] final   26.98 input   60.00 | X-H torsion

> <Gold.Protein.ActiveResidues>
 HIS54   GLU57   HIS58   ALA61   PHE62   ILE64   ARG65   ASP75   ILE76   ILE77  
 ASP78   ILE79   SER80   PRO81   ILE118  PRO119  ALA120  ALA121  ASN122  LYS124 
 GLN125  CYS126  GLY127  CO701   VAL4    GLU5    SER6    PHE7    GLU8    LEU9   
 HIS11   ARG20   HIS21   CYS22   GLY23   VAL24   HIS25   LYS35   ARG39   MET82  
 GLY83   CYS84   TYR89  

> <Gold.Protein.RotatedAtoms>
  -21.4477   38.2374  -16.0686 H   0  0  0  0  0  0  0  0  0  0  0  0  # atno 2649 bound_to 1223
  -20.9325   37.2287  -17.2787 H   0  0  0  0  0  0  0  0  0  0  0  0  # atno 2650 bound_to 1223
  -19.0034   28.8447  -12.9652 H   0  0  0  0  0  0  0  0  0  0  0  0  # atno 3084 bound_to 621 
  -27.5986   38.0019  -29.2668 H   0  0  0  0  0  0  0  0  0  0  0  0  # atno 3412 bound_to 950 
  -28.5500   39.3345  -29.0088 H   0  0  0  0  0  0  0  0  0  0  0  0  # atno 3413 bound_to 950 
  -28.6819   38.0165  -28.0125 H   0  0  0  0  0  0  0  0  0  0  0  0  # atno 3414 bound_to 950 
  -23.5369   32.2934  -21.4397 H   0  0  0  0  0  0  0  0  0  0  0  0  # atno 3476 bound_to 1244
  -19.7708   31.5108  -20.2356 H   0  0  0  0  0  0  0  0  0  0  0  0  # atno 4380 bound_to 1912
  -24.3906   32.3525  -20.0556 LP  0  0  0  0  0  0  0  0  0  0  0  0  # atno 4866 bound_to 1244
  -23.0665   31.4026  -20.1618 LP  0  0  0  0  0  0  0  0  0  0  0  0  # atno 4867 bound_to 1244
  -20.2489   38.7133  -17.0900 LP  0  0  0  0  0  0  0  0  0  0  0  0  # atno 4874 bound_to 1223
  -20.5647   31.7214  -18.8308 LP  0  0  0  0  0  0  0  0  0  0  0  0  # atno 4875 bound_to 1912
  -21.1047   30.6330  -19.9219 LP  0  0  0  0  0  0  0  0  0  0  0  0  # atno 4876 bound_to 1912
  -19.5646   27.7026  -13.9795 LP  0  0  0  0  0  0  0  0  0  0  0  0  # atno 4881 bound_to 621 
  -18.0128   27.6577  -13.4729 LP  0  0  0  0  0  0  0  0  0  0  0  0  # atno 4882 bound_to 621 

$$$$
Compound 3|Library_protonated|sdf|3|dock2
  -GOLD-   6122416143D 1   1.00000     0.00000

 33 32  0  0  0  0  0  0  0  0  3 V2000
  -22.6324   31.1872  -16.0729 S   0  0  0  0  0  0  0  0  0  0  0  0
  -21.4194   32.4598  -16.5929 C   0  0  0  0  0  0  0  0  0  0  0  0
  -24.1846   32.1097  -16.3678 C   0  0  0  0  0  0  0  0  0  0  0  0
  -20.0920   32.3216  -15.8291 C   0  0  2  0  0  0  0  0  0  0  0  0
  -25.3448   31.1761  -16.7213 C   0  0  0  0  0  0  0  0  0  0  0  0
  -20.2511   31.4234  -14.7078 O   0  0  0  0  0  0  0  0  0  0  0  0
  -19.4858   33.6383  -15.3069 C   0  0  1  0  0  0  0  0  0  0  0  0
  -25.3438   30.7332  -18.1917 C   0  0  2  0  0  0  0  0  0  0  0  0
  -18.3792   33.3355  -14.4345 O   0  0  0  0  0  0  0  0  0  0  0  0
  -18.9915   34.5125  -16.4624 C   0  0  0  0  0  0  0  0  0  0  0  0
  -25.6032   31.8932  -19.0695 N   0  3  0  0  0  0  0  0  0  0  0  0
  -26.3448   29.6074  -18.4941 C   0  0  0  0  0  0  0  0  0  0  0  0
  -18.2089   34.1409  -17.3350 O   0  0  0  0  0  0  0  0  0  0  0  0
  -19.5511   35.7649  -16.4698 N   0  0  0  0  0  0  0  0  0  0  0  0
  -26.5548   28.6234  -17.7999 O   0  0  0  0  0  0  0  0  0  0  0  0
  -27.0862   29.8231  -19.5977 O   0  5  0  0  0  0  0  0  0  0  0  0
  -19.1713   36.6480  -17.5001 O   0  0  0  0  0  0  0  0  0  0  0  0
  -21.8301   33.4294  -16.4028 H   0  0  0  0  0  0  0  0  0  0  0  0
  -21.2209   32.3269  -17.6359 H   0  0  0  0  0  0  0  0  0  0  0  0
  -24.0322   32.7937  -17.1764 H   0  0  0  0  0  0  0  0  0  0  0  0
  -24.4386   32.6281  -15.4668 H   0  0  0  0  0  0  0  0  0  0  0  0
  -19.4079   31.9403  -16.5582 H   0  0  0  0  0  0  0  0  0  0  0  0
  -26.2639   31.6862  -16.5212 H   0  0  0  0  0  0  0  0  0  0  0  0
  -25.2341   30.2944  -16.1254 H   0  0  0  0  0  0  0  0  0  0  0  0
  -20.8308   30.6884  -14.9620 H   0  0  0  0  0  0  0  0  0  0  0  0
  -20.2439   34.1751  -14.7759 H   0  0  0  0  0  0  0  0  0  0  0  0
  -24.3711   30.3326  -18.3876 H   0  0  0  0  0  0  0  0  0  0  0  0
  -17.9566   32.5112  -14.7224 H   0  0  0  0  0  0  0  0  0  0  0  0
  -26.1650   31.5968  -19.8675 H   0  0  0  0  0  0  0  0  0  0  0  0
  -24.7167   32.2740  -19.4005 H   0  0  0  0  0  0  0  0  0  0  0  0
  -26.1067   32.6095  -18.5463 H   0  0  0  0  0  0  0  0  0  0  0  0
  -20.1966   36.0376  -15.7783 H   0  0  0  0  0  0  0  0  0  0  0  0
  -18.3658   37.1214  -17.2395 H   0  0  0  0  0  0  0  0  0  0  0  0
  1  2  1  0  0  0  0
  1  3  1  0  0  0  0
  2  4  1  0  0  0  0
  2 18  1  0  0  0  0
  2 19  1  0  0  0  0
  3  5  1  0  0  0  0
  3 20  1  0  0  0  0
  3 21  1  0  0  0  0
  4  6  1  0  0  0  0
  4  7  1  0  0  0  0
  4 22  1  0  0  0  0
  5  8  1  0  0  0  0
  5 23  1  0  0  0  0
  5 24  1  0  0  0  0
  6 25  1  0  0  0  0
  7  9  1  0  0  0  0
  7 10  1  0  0  0  0
  7 26  1  0  0  0  0
  8 11  1  0  0  0  0
  8 12  1  0  0  0  0
  8 27  1  0  0  0  0
  9 28  1  0  0  0  0
 10 13  2  0  0  0  0
 10 14  1  0  0  0  0
 11 29  1  0  0  0  0
 11 30  1  0  0  0  0
 11 31  1  0  0  0  0
 12 15  2  0  0  0  0
 12 16  1  0  0  0  0
 14 17  1  0  0  0  0
 14 32  1  0  0  0  0
 17 33  1  0  0  0  0
M  CHG  1  11   1
M  CHG  1  16  -1
M  END
>  <Column 1>
N[C@@H](CCSC[C@H](O)[C@@H](O)C(=O)NO)C(=O)O

>  <Total Molweight>
268.289

>  <cLogP>
-4.816

>  <cLogS>
-0.775

>  <H-Acceptors>
8

>  <H-Donors>
6

>  <Total Surface Area>
190.65

>  <MMFF94 Energy>
101.44

> <Gold.Version>
5.8.1

> <Gold.Id.Protein>
ID|2FQT|mol2

> <Gold.PLP.Fitness>
76.5469

> <Gold.PLP.PLP>
-38.6133

> <Gold.PLP.part.hbond>
-9.5788

> <Gold.PLP.part.metal>
-1.9498

> <Gold.PLP.part.buried>
-1.5333

> <Gold.PLP.part.nonpolar>
-27.5213

> <Gold.PLP.part.repulsive>
0.4758

> <Gold.PLP.ligand.clash>
0.0000

> <Gold.PLP.ligand.torsion>
1.6614

> <Gold.PLP.Chemscore.Hbond>
5.6080

> <Gold.PLP.Chemscore.CHOScore>
0.0000

> <Gold.PLP.Chemscore.Metal>
3.9902

> <Gold.Chemscore.Hbonds>
donor molecule, donor type, donor heavy atom, donor atom, acceptor molecule, acceptor atom, score
      L1  H     9    28       P1   606  1.00
      L1  H    11    30       P1  1244  1.00
      P1  H   966  3428       L1    16  1.00
      P1  H  1223  2650       L1    17  0.93
      P1  H  1230  2756       L1    17  0.85
      P1  H  1466  3954       L1    13  0.83
      P1  M  1222  1222       L1    15  1.99
      P1  M  1222  1222       L1    16  2.00

> <Gold.PLP.Chemscore.Internal.Correction>
0.4912

> <Gold.Protein.RotatedTorsions>
[ 3412  950  949  948 ] final -178.92 input   60.00 | X-H torsion
[ 3476 1244 1243 1240 ] final   43.97 input   60.00 | X-H torsion
[ 2649 1223 1224 1225 ] final -121.36 input   60.00 | X-H torsion
[ 4380 1912 1911 1909 ] final   31.97 input   60.00 | X-H torsion
[ 3084  621  620  617 ] final -127.53 input   60.00 | X-H torsion

> <Gold.Protein.ActiveResidues>
 HIS54   GLU57   HIS58   ALA61   PHE62   ILE64   ARG65   ASP75   ILE76   ILE77  
 ASP78   ILE79   SER80   PRO81   ILE118  PRO119  ALA120  ALA121  ASN122  LYS124 
 GLN125  CYS126  GLY127  CO701   VAL4    GLU5    SER6    PHE7    GLU8    LEU9   
 HIS11   ARG20   HIS21   CYS22   GLY23   VAL24   HIS25   LYS35   ARG39   MET82  
 GLY83   CYS84   TYR89  

> <Gold.Protein.RotatedAtoms>
  -21.5711   37.6384  -16.3155 H   0  0  0  0  0  0  0  0  0  0  0  0  # atno 2649 bound_to 1223
  -20.4656   37.6074  -17.5500 H   0  0  0  0  0  0  0  0  0  0  0  0  # atno 2650 bound_to 1223
  -19.1155   27.3804  -14.0509 H   0  0  0  0  0  0  0  0  0  0  0  0  # atno 3084 bound_to 621 
  -27.7847   38.7491  -29.5273 H   0  0  0  0  0  0  0  0  0  0  0  0  # atno 3412 bound_to 950 
  -28.9324   39.0222  -28.3631 H   0  0  0  0  0  0  0  0  0  0  0  0  # atno 3413 bound_to 950 
  -28.1134   37.5816  -28.3977 H   0  0  0  0  0  0  0  0  0  0  0  0  # atno 3414 bound_to 950 
  -23.1554   31.9646  -21.3385 H   0  0  0  0  0  0  0  0  0  0  0  0  # atno 3476 bound_to 1244
  -20.9847   31.3521  -18.8792 H   0  0  0  0  0  0  0  0  0  0  0  0  # atno 4380 bound_to 1912
  -24.4248   32.5733  -20.5223 LP  0  0  0  0  0  0  0  0  0  0  0  0  # atno 4866 bound_to 1244
  -23.4166   31.5129  -19.7971 LP  0  0  0  0  0  0  0  0  0  0  0  0  # atno 4867 bound_to 1244
  -20.5873   38.9304  -16.5796 LP  0  0  0  0  0  0  0  0  0  0  0  0  # atno 4874 bound_to 1223
  -20.7304   30.6820  -20.3401 LP  0  0  0  0  0  0  0  0  0  0  0  0  # atno 4875 bound_to 1912
  -19.7164   31.8323  -19.7786 LP  0  0  0  0  0  0  0  0  0  0  0  0  # atno 4876 bound_to 1912
  -17.9785   28.1061  -13.1405 LP  0  0  0  0  0  0  0  0  0  0  0  0  # atno 4881 bound_to 621 
  -19.4861   28.7288  -13.2186 LP  0  0  0  0  0  0  0  0  0  0  0  0  # atno 4882 bound_to 621 

$$$$
Compound 4|Library_protonated|sdf|4|dock5
  -GOLD-   6122416143D 1   1.00000     0.00000

 39 39  0  0  0  0  0  0  0  0  4 V2000
  -26.8418   29.8002  -19.8940 O   0  0  0  0  0  0  0  0  0  0  0  0
  -26.3115   29.4166  -18.8586 C   0  0  0  0  0  0  0  0  0  0  0  0
  -27.0768   29.0981  -17.7996 O   0  5  0  0  0  0  0  0  0  0  0  0
  -24.7929   29.2873  -18.6488 C   0  0  1  0  0  0  0  0  0  0  0  0
  -24.1235   29.6794  -19.9097 N   0  3  0  0  0  0  0  0  0  0  0  0
  -24.2170   30.1296  -17.5004 C   0  0  0  0  0  0  0  0  0  0  0  0
  -24.9038   31.4995  -17.3839 C   0  0  0  0  0  0  0  0  0  0  0  0
  -24.0565   32.5494  -16.6411 C   0  0  1  0  0  0  0  0  0  0  0  0
  -24.3057   32.3705  -15.2058 N   0  3  0  0  0  0  0  0  0  0  0  0
  -22.5484   32.4308  -16.9394 C   0  0  0  0  0  0  0  0  0  0  0  0
  -21.6982   33.4985  -16.2350 C   0  0  1  0  0  0  0  0  0  0  0  0
  -20.7839   32.9106  -15.2865 O   0  0  0  0  0  0  0  0  0  0  0  0
  -20.8506   34.3043  -17.2208 C   0  0  1  0  0  0  0  0  0  0  0  0
  -19.5065   33.5328  -15.4540 C   0  0  2  0  0  0  0  0  0  0  0  0
  -21.5658   35.3986  -17.7844 O   0  0  0  0  0  0  0  0  0  0  0  0
  -19.7055   34.7669  -16.3376 C   0  0  2  0  0  0  0  0  0  0  0  0
  -18.6534   32.6057  -16.0964 O   0  0  0  0  0  0  0  0  0  0  0  0
  -20.1438   35.9144  -15.5869 O   0  0  0  0  0  0  0  0  0  0  0  0
  -24.6113   28.2689  -18.3758 H   0  0  0  0  0  0  0  0  0  0  0  0
  -23.1777   29.2977  -19.9254 H   0  0  0  0  0  0  0  0  0  0  0  0
  -24.0807   30.6967  -19.9698 H   0  0  0  0  0  0  0  0  0  0  0  0
  -24.6510   29.3138  -20.7026 H   0  0  0  0  0  0  0  0  0  0  0  0
  -23.1723   30.2816  -17.6750 H   0  0  0  0  0  0  0  0  0  0  0  0
  -24.3860   29.5986  -16.5870 H   0  0  0  0  0  0  0  0  0  0  0  0
  -25.8256   31.3726  -16.8555 H   0  0  0  0  0  0  0  0  0  0  0  0
  -25.0537   31.8625  -18.3792 H   0  0  0  0  0  0  0  0  0  0  0  0
  -24.3425   33.5247  -16.9757 H   0  0  0  0  0  0  0  0  0  0  0  0
  -24.2162   31.3832  -14.9656 H   0  0  0  0  0  0  0  0  0  0  0  0
  -25.2477   32.6909  -14.9816 H   0  0  0  0  0  0  0  0  0  0  0  0
  -23.6262   32.9130  -14.6725 H   0  0  0  0  0  0  0  0  0  0  0  0
  -22.4036   32.5251  -17.9953 H   0  0  0  0  0  0  0  0  0  0  0  0
  -22.2284   31.4792  -16.5692 H   0  0  0  0  0  0  0  0  0  0  0  0
  -22.4010   34.1366  -15.7412 H   0  0  0  0  0  0  0  0  0  0  0  0
  -20.5392   33.7415  -18.0758 H   0  0  0  0  0  0  0  0  0  0  0  0
  -19.0771   33.8238  -14.5181 H   0  0  0  0  0  0  0  0  0  0  0  0
  -21.3121   36.2182  -17.3318 H   0  0  0  0  0  0  0  0  0  0  0  0
  -18.8088   35.0698  -16.8367 H   0  0  0  0  0  0  0  0  0  0  0  0
  -18.3851   31.9210  -15.4638 H   0  0  0  0  0  0  0  0  0  0  0  0
  -20.7290   36.4571  -16.1381 H   0  0  0  0  0  0  0  0  0  0  0  0
  1  2  2  0  0  0  0
  2  3  1  0  0  0  0
  2  4  1  0  0  0  0
  4  5  1  0  0  0  0
  4  6  1  0  0  0  0
  4 19  1  0  0  0  0
  5 20  1  0  0  0  0
  5 21  1  0  0  0  0
  5 22  1  0  0  0  0
  6  7  1  0  0  0  0
  6 23  1  0  0  0  0
  6 24  1  0  0  0  0
  7  8  1  0  0  0  0
  7 25  1  0  0  0  0
  7 26  1  0  0  0  0
  8  9  1  0  0  0  0
  8 10  1  0  0  0  0
  8 27  1  0  0  0  0
  9 28  1  0  0  0  0
  9 29  1  0  0  0  0
  9 30  1  0  0  0  0
 10 11  1  0  0  0  0
 10 31  1  0  0  0  0
 10 32  1  0  0  0  0
 11 12  1  0  0  0  0
 11 13  1  0  0  0  0
 11 33  1  0  0  0  0
 12 14  1  0  0  0  0
 13 15  1  0  0  0  0
 13 16  1  0  0  0  0
 13 34  1  0  0  0  0
 14 17  1  0  0  0  0
 14 16  1  0  0  0  0
 14 35  1  0  0  0  0
 15 36  1  0  0  0  0
 16 18  1  0  0  0  0
 16 37  1  0  0  0  0
 17 38  1  0  0  0  0
 18 39  1  0  0  0  0
M  CHG  1   3  -1
M  CHG  1   5   1
M  CHG  1   9   1
M  END
>  <Column 1>
NC(CC[C@H](N)C(=O)O)C[C@H]1O[C@@H](O)[C@H](O)[C@@H]1O

>  <Total Molweight>
264.277

>  <cLogP>
-6.4811

>  <cLogS>
-0.564

>  <H-Acceptors>
8

>  <H-Donors>
6

>  <Total Surface Area>
186.47

>  <MMFF94 Energy>
78.133

> <Gold.Version>
5.8.1

> <Gold.Id.Protein>
ID|2FQT|mol2

> <Gold.PLP.Fitness>
80.0097

> <Gold.PLP.PLP>
-42.5667

> <Gold.PLP.part.hbond>
-7.5875

> <Gold.PLP.part.metal>
-1.5413

> <Gold.PLP.part.buried>
-4.0957

> <Gold.PLP.part.nonpolar>
-28.7398

> <Gold.PLP.part.repulsive>
0.4361

> <Gold.PLP.ligand.clash>
0.0000

> <Gold.PLP.ligand.torsion>
1.3640

> <Gold.PLP.Chemscore.Hbond>
5.4003

> <Gold.PLP.Chemscore.CHOScore>
0.0000

> <Gold.PLP.Chemscore.Metal>
3.9731

> <Gold.Chemscore.Hbonds>
donor molecule, donor type, donor heavy atom, donor atom, acceptor molecule, acceptor atom, score
      L1  H     5    21       P1  1244  1.00
      L1  H    15    36       P1  1223  1.00
      L1  H    17    38       P1   606  1.00
      L1  H    18    39       P1  1223  0.46
      P1  H   966  3428       L1     1  1.00
      P1  H  1239  3336       L1    15  0.94
      P1  M  1222  1222       L1     1  1.97
      P1  M  1222  1222       L1     3  2.00

> <Gold.PLP.Chemscore.Internal.Correction>
0.1318

> <Gold.Protein.RotatedTorsions>
[ 3412  950  949  948 ] final  174.28 input   60.00 | X-H torsion
[ 3476 1244 1243 1240 ] final  -24.30 input   60.00 | X-H torsion
[ 2649 1223 1224 1225 ] final   47.54 input   60.00 | X-H torsion
[ 4380 1912 1911 1909 ] final   93.77 input   60.00 | X-H torsion
[ 3084  621  620  617 ] final   30.25 input   60.00 | X-H torsion

> <Gold.Protein.ActiveResidues>
 HIS54   GLU57   HIS58   ALA61   PHE62   ILE64   ARG65   ASP75   ILE76   ILE77  
 ASP78   ILE79   SER80   PRO81   ILE118  PRO119  ALA120  ALA121  ASN122  LYS124 
 GLN125  CYS126  GLY127  CO701   VAL4    GLU5    SER6    PHE7    GLU8    LEU9   
 HIS11   ARG20   HIS21   CYS22   GLY23   VAL24   HIS25   LYS35   ARG39   MET82  
 GLY83   CYS84   TYR89  

> <Gold.Protein.RotatedAtoms>
  -20.1735   38.3302  -17.4094 H   0  0  0  0  0  0  0  0  0  0  0  0  # atno 2649 bound_to 1223
  -21.1608   38.6538  -16.1181 H   0  0  0  0  0  0  0  0  0  0  0  0  # atno 2650 bound_to 1223
  -18.9525   28.8420  -12.9495 H   0  0  0  0  0  0  0  0  0  0  0  0  # atno 3084 bound_to 621 
  -27.7322   38.6486  -29.5243 H   0  0  0  0  0  0  0  0  0  0  0  0  # atno 3412 bound_to 950 
  -28.9054   39.0979  -28.4430 H   0  0  0  0  0  0  0  0  0  0  0  0  # atno 3413 bound_to 950 
  -28.1930   37.6063  -28.3208 H   0  0  0  0  0  0  0  0  0  0  0  0  # atno 3414 bound_to 950 
  -24.0123   32.5629  -21.2306 H   0  0  0  0  0  0  0  0  0  0  0  0  # atno 3476 bound_to 1244
  -20.2049   31.8994  -19.0091 H   0  0  0  0  0  0  0  0  0  0  0  0  # atno 4380 bound_to 1912
  -24.0874   31.9814  -19.7127 LP  0  0  0  0  0  0  0  0  0  0  0  0  # atno 4866 bound_to 1244
  -22.8909   31.5022  -20.7154 LP  0  0  0  0  0  0  0  0  0  0  0  0  # atno 4867 bound_to 1244
  -21.2793   37.2180  -16.9125 LP  0  0  0  0  0  0  0  0  0  0  0  0  # atno 4874 bound_to 1223
  -21.2456   30.7592  -19.5238 LP  0  0  0  0  0  0  0  0  0  0  0  0  # atno 4875 bound_to 1912
  -19.9867   31.2039  -20.4640 LP  0  0  0  0  0  0  0  0  0  0  0  0  # atno 4876 bound_to 1912
  -19.5961   27.7425  -13.9619 LP  0  0  0  0  0  0  0  0  0  0  0  0  # atno 4881 bound_to 621 
  -18.0327   27.6205  -13.5064 LP  0  0  0  0  0  0  0  0  0  0  0  0  # atno 4882 bound_to 621 

$$$$
Compound 5|Library_protonated|sdf|5|dock2
  -GOLD-   6122416153D 1   1.00000     0.00000

 20 19  0  0  0  0  0  0  0  0  3 V2000
  -23.7078   31.5083  -15.8185 S   0  0  0  0  0  0  0  0  0  0  0  0
  -24.2647   31.0764  -17.5049 C   0  0  0  0  0  0  0  0  0  0  0  0
  -24.9851   32.7133  -15.3813 C   0  0  0  0  0  0  0  0  0  0  0  0
  -23.8574   29.6506  -17.8851 C   0  0  0  0  0  0  0  0  0  0  0  0
  -24.6308   29.0882  -19.0850 C   0  0  2  0  0  0  0  0  0  0  0  0
  -24.0513   29.5752  -20.3561 N   0  3  0  0  0  0  0  0  0  0  0  0
  -26.1323   29.4013  -19.0107 C   0  0  0  0  0  0  0  0  0  0  0  0
  -26.8134   29.9466  -19.8632 O   0  0  0  0  0  0  0  0  0  0  0  0
  -26.6790   29.0703  -17.8167 O   0  5  0  0  0  0  0  0  0  0  0  0
  -23.8259   31.7602  -18.2013 H   0  0  0  0  0  0  0  0  0  0  0  0
  -25.3327   31.1374  -17.5305 H   0  0  0  0  0  0  0  0  0  0  0  0
  -24.8058   33.0800  -14.3921 H   0  0  0  0  0  0  0  0  0  0  0  0
  -25.9460   32.2441  -15.4190 H   0  0  0  0  0  0  0  0  0  0  0  0
  -24.9587   33.5284  -16.0740 H   0  0  0  0  0  0  0  0  0  0  0  0
  -24.0305   29.0137  -17.0428 H   0  0  0  0  0  0  0  0  0  0  0  0
  -22.8254   29.6841  -18.1658 H   0  0  0  0  0  0  0  0  0  0  0  0
  -24.5337   28.0231  -19.0509 H   0  0  0  0  0  0  0  0  0  0  0  0
  -23.9793   30.5923  -20.3293 H   0  0  0  0  0  0  0  0  0  0  0  0
  -24.6520   29.2972  -21.1322 H   0  0  0  0  0  0  0  0  0  0  0  0
  -23.1232   29.1718  -20.4832 H   0  0  0  0  0  0  0  0  0  0  0  0
  1  2  1  0  0  0  0
  1  3  1  0  0  0  0
  2  4  1  0  0  0  0
  2 10  1  0  0  0  0
  2 11  1  0  0  0  0
  3 12  1  0  0  0  0
  3 13  1  0  0  0  0
  3 14  1  0  0  0  0
  4  5  1  0  0  0  0
  4 15  1  0  0  0  0
  4 16  1  0  0  0  0
  5  6  1  0  0  0  0
  5  7  1  0  0  0  0
  5 17  1  0  0  0  0
  6 18  1  0  0  0  0
  6 19  1  0  0  0  0
  6 20  1  0  0  0  0
  7  8  2  0  0  0  0
  7  9  1  0  0  0  0
M  CHG  1   6   1
M  CHG  1   9  -1
M  END
>  <Column 1>
CSCC[C@H](N)C(=O)O

>  <Total Molweight>
149.213

>  <cLogP>
-2.3875

>  <cLogS>
-1.051

>  <H-Acceptors>
3

>  <H-Donors>
2

>  <Total Surface Area>
115.89

>  <MMFF94 Energy>
23.911

> <Gold.Version>
5.8.1

> <Gold.Id.Protein>
ID|2FQT|mol2

> <Gold.PLP.Fitness>
59.1979

> <Gold.PLP.PLP>
-30.2679

> <Gold.PLP.part.hbond>
-2.0000

> <Gold.PLP.part.metal>
-1.9971

> <Gold.PLP.part.buried>
-1.9932

> <Gold.PLP.part.nonpolar>
-24.6859

> <Gold.PLP.part.repulsive>
0.3762

> <Gold.PLP.ligand.clash>
0.0000

> <Gold.PLP.ligand.torsion>
0.4874

> <Gold.PLP.Chemscore.Hbond>
2.0000

> <Gold.PLP.Chemscore.CHOScore>
0.0000

> <Gold.PLP.Chemscore.Metal>
3.9731

> <Gold.Chemscore.Hbonds>
donor molecule, donor type, donor heavy atom, donor atom, acceptor molecule, acceptor atom, score
      L1  H     6    18       P1  1244  1.00
      P1  H   966  3428       L1     8  1.00
      P1  M  1222  1222       L1     8  1.97
      P1  M  1222  1222       L1     9  2.00

> <Gold.PLP.Chemscore.Internal.Correction>
0.0664

> <Gold.Protein.RotatedTorsions>
[ 3412  950  949  948 ] final  174.61 input   60.00 | X-H torsion
[ 3476 1244 1243 1240 ] final  -30.35 input   60.00 | X-H torsion
[ 2649 1223 1224 1225 ] final  -62.41 input   60.00 | X-H torsion
[ 4380 1912 1911 1909 ] final -155.50 input   60.00 | X-H torsion
[ 3084  621  620  617 ] final   39.38 input   60.00 | X-H torsion

> <Gold.Protein.ActiveResidues>
 HIS54   GLU57   HIS58   ALA61   PHE62   ILE64   ARG65   ASP75   ILE76   ILE77  
 ASP78   ILE79   SER80   PRO81   ILE118  PRO119  ALA120  ALA121  ASN122  LYS124 
 GLN125  CYS126  GLY127  CO701   VAL4    GLU5    SER6    PHE7    GLU8    LEU9   
 HIS11   ARG20   HIS21   CYS22   GLY23   VAL24   HIS25   LYS35   ARG39   MET82  
 GLY83   CYS84   TYR89  

> <Gold.Protein.RotatedAtoms>
  -21.1763   37.1839  -17.0395 H   0  0  0  0  0  0  0  0  0  0  0  0  # atno 2649 bound_to 1223
  -20.1720   38.4722  -17.3205 H   0  0  0  0  0  0  0  0  0  0  0  0  # atno 2650 bound_to 1223
  -18.8091   28.8211  -12.9146 H   0  0  0  0  0  0  0  0  0  0  0  0  # atno 3084 bound_to 621 
  -27.7346   38.6535  -29.5247 H   0  0  0  0  0  0  0  0  0  0  0  0  # atno 3412 bound_to 950 
  -28.9069   39.0945  -28.4391 H   0  0  0  0  0  0  0  0  0  0  0  0  # atno 3413 bound_to 950 
  -28.1891   37.6049  -28.3243 H   0  0  0  0  0  0  0  0  0  0  0  0  # atno 3414 bound_to 950 
  -24.0827   32.5888  -21.1662 H   0  0  0  0  0  0  0  0  0  0  0  0  # atno 3476 bound_to 1244
  -19.8990   31.3098  -20.3992 H   0  0  0  0  0  0  0  0  0  0  0  0  # atno 4380 bound_to 1912
  -24.0166   31.9169  -19.6856 LP  0  0  0  0  0  0  0  0  0  0  0  0  # atno 4866 bound_to 1244
  -22.8909   31.5406  -20.8072 LP  0  0  0  0  0  0  0  0  0  0  0  0  # atno 4867 bound_to 1244
  -21.2655   38.5263  -16.0924 LP  0  0  0  0  0  0  0  0  0  0  0  0  # atno 4874 bound_to 1223
  -20.3250   31.8560  -18.9267 LP  0  0  0  0  0  0  0  0  0  0  0  0  # atno 4875 bound_to 1912
  -21.2153   30.7009  -19.6613 LP  0  0  0  0  0  0  0  0  0  0  0  0  # atno 4876 bound_to 1912
  -19.6710   27.8591  -13.9045 LP  0  0  0  0  0  0  0  0  0  0  0  0  # atno 4881 bound_to 621 
  -18.1021   27.5249  -13.5989 LP  0  0  0  0  0  0  0  0  0  0  0  0  # atno 4882 bound_to 621 

$$$$
Compound 6|Library_protonated|sdf|6|dock5
  -GOLD-   6122416153D 1   1.00000     0.00000

 28 27  0  0  0  0  0  0  0  0  4 V2000
  -26.4624   30.3157  -17.7733 O   0  0  0  0  0  0  0  0  0  0  0  0
  -26.0045   29.7044  -18.7257 C   0  0  0  0  0  0  0  0  0  0  0  0
  -26.8009   29.3999  -19.7789 O   0  5  0  0  0  0  0  0  0  0  0  0
  -24.5871   29.1304  -18.8681 C   0  0  1  0  0  0  0  0  0  0  0  0
  -23.9418   29.6249  -20.1011 N   0  3  0  0  0  0  0  0  0  0  0  0
  -23.7187   29.4146  -17.6345 C   0  0  0  0  0  0  0  0  0  0  0  0
  -23.7184   30.8806  -17.1758 C   0  0  0  0  0  0  0  0  0  0  0  0
  -22.5698   31.1476  -16.1978 C   0  0  0  0  0  0  0  0  0  0  0  0
  -22.4275   32.6234  -15.8174 C   0  0  0  0  0  0  0  0  0  0  0  0
  -21.6535   33.3942  -16.7799 N   0  3  0  0  0  0  0  0  0  0  0  0
  -20.4552   32.7966  -17.2040 O   0  0  0  0  0  0  0  0  0  0  0  0
  -21.8644   34.7037  -17.1037 C   0  0  0  0  0  0  0  0  0  0  0  0
  -21.1328   35.3973  -17.7996 O   0  0  0  0  0  0  0  0  0  0  0  0
  -24.6819   28.0671  -18.9411 H   0  0  0  0  0  0  0  0  0  0  0  0
  -23.6645   30.5981  -19.9730 H   0  0  0  0  0  0  0  0  0  0  0  0
  -24.5985   29.5580  -20.8789 H   0  0  0  0  0  0  0  0  0  0  0  0
  -23.1169   29.0600  -20.3032 H   0  0  0  0  0  0  0  0  0  0  0  0
  -22.7112   29.1368  -17.8645 H   0  0  0  0  0  0  0  0  0  0  0  0
  -24.1382   28.8459  -16.8311 H   0  0  0  0  0  0  0  0  0  0  0  0
  -24.6480   31.0963  -16.6917 H   0  0  0  0  0  0  0  0  0  0  0  0
  -23.5894   31.5070  -18.0336 H   0  0  0  0  0  0  0  0  0  0  0  0
  -21.6561   30.8242  -16.6510 H   0  0  0  0  0  0  0  0  0  0  0  0
  -22.7877   30.6089  -15.2993 H   0  0  0  0  0  0  0  0  0  0  0  0
  -21.9424   32.6835  -14.8655 H   0  0  0  0  0  0  0  0  0  0  0  0
  -23.4122   33.0414  -15.7953 H   0  0  0  0  0  0  0  0  0  0  0  0
  -21.4732   32.5703  -16.2720 H   0  0  0  0  0  0  0  0  0  0  0  0
  -20.5767   32.4220  -18.0905 H   0  0  0  0  0  0  0  0  0  0  0  0
  -22.7164   35.1491  -16.7287 H   0  0  0  0  0  0  0  0  0  0  0  0
  1  2  2  0  0  0  0
  2  3  1  0  0  0  0
  2  4  1  0  0  0  0
  4  5  1  0  0  0  0
  4  6  1  0  0  0  0
  4 14  1  0  0  0  0
  5 15  1  0  0  0  0
  5 16  1  0  0  0  0
  5 17  1  0  0  0  0
  6  7  1  0  0  0  0
  6 18  1  0  0  0  0
  6 19  1  0  0  0  0
  7  8  1  0  0  0  0
  7 20  1  0  0  0  0
  7 21  1  0  0  0  0
  8  9  1  0  0  0  0
  8 22  1  0  0  0  0
  8 23  1  0  0  0  0
  9 10  1  0  0  0  0
  9 24  1  0  0  0  0
  9 25  1  0  0  0  0
 10 11  1  0  0  0  0
 10 12  1  0  0  0  0
 10 26  1  0  0  0  0
 11 27  1  0  0  0  0
 12 13  2  0  0  0  0
 12 28  1  0  0  0  0
M  CHG  1   3  -1
M  CHG  1   5   1
M  CHG  1  10   1
M  END
>  <Column 1>
N[C@@H](CCCCN(O)C=O)C(=O)O

>  <Total Molweight>
190.198

>  <cLogP>
-3.3461

>  <cLogS>
-0.93

>  <H-Acceptors>
6

>  <H-Donors>
3

>  <Total Surface Area>
149.85

>  <MMFF94 Energy>
43.771

> <Gold.Version>
5.8.1

> <Gold.Id.Protein>
ID|2FQT|mol2

> <Gold.PLP.Fitness>
71.9344

> <Gold.PLP.PLP>
-33.6298

> <Gold.PLP.part.hbond>
-5.9532

> <Gold.PLP.part.metal>
-2.0000

> <Gold.PLP.part.buried>
-3.0432

> <Gold.PLP.part.nonpolar>
-23.2650

> <Gold.PLP.part.repulsive>
0.3559

> <Gold.PLP.ligand.clash>
0.0000

> <Gold.PLP.ligand.torsion>
0.6119

> <Gold.PLP.Chemscore.Hbond>
5.0000

> <Gold.PLP.Chemscore.CHOScore>
0.0000

> <Gold.PLP.Chemscore.Metal>
3.9731

> <Gold.Chemscore.Hbonds>
donor molecule, donor type, donor heavy atom, donor atom, acceptor molecule, acceptor atom, score
      L1  H     5    15       P1  1244  1.00
      L1  H    11    27       P1  1912  1.00
      P1  H   966  3428       L1     3  1.00
      P1  H  1223  2650       L1    13  1.00
      P1  H  1239  3336       L1    13  1.00
      P1  M  1222  1222       L1     1  2.00
      P1  M  1222  1222       L1     3  1.97

> <Gold.PLP.Chemscore.Internal.Correction>
0.6900

> <Gold.Protein.RotatedTorsions>
[ 3412  950  949  948 ] final   37.23 input   60.00 | X-H torsion
[ 3476 1244 1243 1240 ] final   20.95 input   60.00 | X-H torsion
[ 2649 1223 1224 1225 ] final  176.45 input   60.00 | X-H torsion
[ 4380 1912 1911 1909 ] final -129.83 input   60.00 | X-H torsion
[ 3084  621  620  617 ] final  -84.46 input   60.00 | X-H torsion

> <Gold.Protein.ActiveResidues>
 HIS54   GLU57   HIS58   ALA61   PHE62   ILE64   ARG65   ASP75   ILE76   ILE77  
 ASP78   ILE79   SER80   PRO81   ILE118  PRO119  ALA120  ALA121  ASN122  LYS124 
 GLN125  CYS126  GLY127  CO701   VAL4    GLU5    SER6    PHE7    GLU8    LEU9   
 HIS11   ARG20   HIS21   CYS22   GLY23   VAL24   HIS25   LYS35   ARG39   MET82  
 GLY83   CYS84   TYR89  

> <Gold.Protein.RotatedAtoms>
  -21.2564   38.5459  -16.0819 H   0  0  0  0  0  0  0  0  0  0  0  0  # atno 2649 bound_to 1223
  -21.1889   37.1847  -17.0251 H   0  0  0  0  0  0  0  0  0  0  0  0  # atno 2650 bound_to 1223
  -19.6371   27.8098  -13.9251 H   0  0  0  0  0  0  0  0  0  0  0  0  # atno 3084 bound_to 621 
  -28.3952   37.7195  -28.1571 H   0  0  0  0  0  0  0  0  0  0  0  0  # atno 3412 bound_to 950 
  -27.6356   38.3874  -29.4702 H   0  0  0  0  0  0  0  0  0  0  0  0  # atno 3413 bound_to 950 
  -28.7997   39.2459  -28.6608 H   0  0  0  0  0  0  0  0  0  0  0  0  # atno 3414 bound_to 950 
  -23.4219   32.2065  -21.4386 H   0  0  0  0  0  0  0  0  0  0  0  0  # atno 3476 bound_to 1244
  -20.1772   31.0208  -20.5090 H   0  0  0  0  0  0  0  0  0  0  0  0  # atno 4380 bound_to 1912
  -24.4237   32.4275  -20.1754 LP  0  0  0  0  0  0  0  0  0  0  0  0  # atno 4866 bound_to 1244
  -23.1493   31.4151  -20.0431 LP  0  0  0  0  0  0  0  0  0  0  0  0  # atno 4867 bound_to 1244
  -20.1848   38.4528  -17.3268 LP  0  0  0  0  0  0  0  0  0  0  0  0  # atno 4874 bound_to 1223
  -20.0103   31.9528  -19.1856 LP  0  0  0  0  0  0  0  0  0  0  0  0  # atno 4875 bound_to 1912
  -21.2498   30.8951  -19.2918 LP  0  0  0  0  0  0  0  0  0  0  0  0  # atno 4876 bound_to 1912
  -18.0704   27.5636  -13.5602 LP  0  0  0  0  0  0  0  0  0  0  0  0  # atno 4881 bound_to 621 
  -18.8689   28.8389  -12.9256 LP  0  0  0  0  0  0  0  0  0  0  0  0  # atno 4882 bound_to 621 

$$$$
Compound 7|Library_protonated|sdf|7|dock9
  -GOLD-   6122416153D 1   1.00000     0.00000

 19 18  0  0  0  0  0  0  0  0  1 V2000
  -26.8601   29.4004  -19.8646 O   0  0  0  0  0  0  0  0  0  0  0  0
  -25.6996   29.4991  -19.4683 C   0  0  0  0  0  0  0  0  0  0  0  0
  -24.6307   29.5194  -20.3266 N   0  0  0  0  0  0  0  0  0  0  0  0
  -25.3318   29.6264  -17.9878 C   0  0  2  0  0  0  0  0  0  0  0  0
  -24.9067   29.4151  -21.7051 O   0  0  0  0  0  0  0  0  0  0  0  0
  -26.5185   29.7321  -17.2000 O   0  0  0  0  0  0  0  0  0  0  0  0
  -24.4310   30.8525  -17.7711 C   0  0  2  0  0  0  0  0  0  0  0  0
  -23.1070   30.6416  -18.2922 O   0  0  0  0  0  0  0  0  0  0  0  0
  -24.2895   31.2115  -16.2867 C   0  0  0  0  0  0  0  0  0  0  0  0
  -23.7341   32.5224  -16.1623 O   0  0  0  0  0  0  0  0  0  0  0  0
  -23.7080   29.6035  -19.9937 H   0  0  0  0  0  0  0  0  0  0  0  0
  -24.7944   28.7526  -17.6836 H   0  0  0  0  0  0  0  0  0  0  0  0
  -25.3832   30.2067  -22.0003 H   0  0  0  0  0  0  0  0  0  0  0  0
  -27.0618   30.4646  -17.5304 H   0  0  0  0  0  0  0  0  0  0  0  0
  -24.9114   31.6527  -18.2944 H   0  0  0  0  0  0  0  0  0  0  0  0
  -22.9928   29.7044  -18.5150 H   0  0  0  0  0  0  0  0  0  0  0  0
  -23.6441   30.5043  -15.8090 H   0  0  0  0  0  0  0  0  0  0  0  0
  -25.2528   31.1877  -15.8215 H   0  0  0  0  0  0  0  0  0  0  0  0
  -23.7862   32.8092  -15.2371 H   0  0  0  0  0  0  0  0  0  0  0  0
  1  2  2  0  0  0  0
  2  3  1  0  0  0  0
  2  4  1  0  0  0  0
  3  5  1  0  0  0  0
  3 11  1  0  0  0  0
  4  6  1  0  0  0  0
  4  7  1  0  0  0  0
  4 12  1  0  0  0  0
  5 13  1  0  0  0  0
  6 14  1  0  0  0  0
  7  8  1  0  0  0  0
  7  9  1  0  0  0  0
  7 15  1  0  0  0  0
  8 16  1  0  0  0  0
  9 10  1  0  0  0  0
  9 17  1  0  0  0  0
  9 18  1  0  0  0  0
 10 19  1  0  0  0  0
M  END
>  <Column 1>
O=C(NO)[C@H](O)[C@H](O)CO

>  <Total Molweight>
151.117

>  <cLogP>
-2.875

>  <cLogS>
0.031

>  <H-Acceptors>
6

>  <H-Donors>
5

>  <Total Surface Area>
106.87

>  <MMFF94 Energy>
90.051

> <Gold.Version>
5.8.1

> <Gold.Id.Protein>
ID|2FQT|mol2

> <Gold.PLP.Fitness>
54.9569

> <Gold.PLP.PLP>
-26.5133

> <Gold.PLP.part.hbond>
-7.8843

> <Gold.PLP.part.metal>
-2.0000

> <Gold.PLP.part.buried>
-2.4373

> <Gold.PLP.part.nonpolar>
-15.0646

> <Gold.PLP.part.repulsive>
0.2561

> <Gold.PLP.ligand.clash>
0.0000

> <Gold.PLP.ligand.torsion>
0.3396

> <Gold.PLP.Chemscore.Hbond>
5.7655

> <Gold.PLP.Chemscore.CHOScore>
0.0000

> <Gold.PLP.Chemscore.Metal>
1.9693

> <Gold.Chemscore.Hbonds>
donor molecule, donor type, donor heavy atom, donor atom, acceptor molecule, acceptor atom, score
      L1  H     5    13       P1  1290  0.69
      L1  H     6    14       P1   437  0.73
      P1  H   966  3428       L1     1  1.00
      P1  H  1244  3476       L1     8  1.00
      P1  H  1912  4380       L1     8  0.54
      P1  H  1504  3991       L1     5  0.91
      P1  H  1503  3989       L1     5  0.90
      P1  M  1222  1222       L1     1  0.97
      P1  M  1222  1222       L1     6  1.00

> <Gold.PLP.Chemscore.Internal.Correction>
0.0104

> <Gold.Protein.RotatedTorsions>
[ 3412  950  949  948 ] final  175.03 input   60.00 | X-H torsion
[ 3476 1244 1243 1240 ] final  153.17 input   60.00 | X-H torsion
[ 2649 1223 1224 1225 ] final  116.34 input   60.00 | X-H torsion
[ 4380 1912 1911 1909 ] final   11.92 input   60.00 | X-H torsion
[ 3084  621  620  617 ] final  -64.73 input   60.00 | X-H torsion

> <Gold.Protein.ActiveResidues>
 HIS54   GLU57   HIS58   ALA61   PHE62   ILE64   ARG65   ASP75   ILE76   ILE77  
 ASP78   ILE79   SER80   PRO81   ILE118  PRO119  ALA120  ALA121  ASN122  LYS124 
 GLN125  CYS126  GLY127  CO701   VAL4    GLU5    SER6    PHE7    GLU8    LEU9   
 HIS11   ARG20   HIS21   CYS22   GLY23   VAL24   HIS25   LYS35   ARG39   MET82  
 GLY83   CYS84   TYR89  

> <Gold.Protein.RotatedAtoms>
  -20.5543   38.9400  -16.6017 H   0  0  0  0  0  0  0  0  0  0  0  0  # atno 2649 bound_to 1223
  -21.5732   37.6697  -16.2932 H   0  0  0  0  0  0  0  0  0  0  0  0  # atno 2650 bound_to 1223
  -19.7461   28.0719  -13.7755 H   0  0  0  0  0  0  0  0  0  0  0  0  # atno 3084 bound_to 621 
  -27.7376   38.6598  -29.5251 H   0  0  0  0  0  0  0  0  0  0  0  0  # atno 3412 bound_to 950 
  -28.9088   39.0900  -28.4340 H   0  0  0  0  0  0  0  0  0  0  0  0  # atno 3413 bound_to 950 
  -28.1841   37.6030  -28.3289 H   0  0  0  0  0  0  0  0  0  0  0  0  # atno 3414 bound_to 950 
  -23.2847   31.4615  -19.9034 H   0  0  0  0  0  0  0  0  0  0  0  0  # atno 3476 bound_to 1244
  -21.1533   31.1221  -19.0371 H   0  0  0  0  0  0  0  0  0  0  0  0  # atno 4380 bound_to 1912
  -23.2713   32.0781  -21.4093 LP  0  0  0  0  0  0  0  0  0  0  0  0  # atno 4866 bound_to 1244
  -24.4398   32.5148  -20.3554 LP  0  0  0  0  0  0  0  0  0  0  0  0  # atno 4867 bound_to 1244
  -20.4979   37.5867  -17.5357 LP  0  0  0  0  0  0  0  0  0  0  0  0  # atno 4874 bound_to 1223
  -20.4631   30.8134  -20.4781 LP  0  0  0  0  0  0  0  0  0  0  0  0  # atno 4875 bound_to 1912
  -19.8140   31.9324  -19.4816 LP  0  0  0  0  0  0  0  0  0  0  0  0  # atno 4876 bound_to 1912
  -18.2675   27.3926  -13.7508 LP  0  0  0  0  0  0  0  0  0  0  0  0  # atno 4881 bound_to 621 
  -18.5620   28.7459  -12.8856 LP  0  0  0  0  0  0  0  0  0  0  0  0  # atno 4882 bound_to 621 

$$$$
Compound 1|Decoys_protonated|sdf|1|dock3
  -GOLD-   6122416153D 1   1.00000     0.00000

 38 40  0  0  0  0  0  0  0  0  1 V2000
  -19.4852   33.5987  -19.3257 O   0  0  0  0  0  0  0  0  0  0  0  0
  -18.9513   34.3570  -18.5106 C   0  0  0  0  0  0  0  0  0  0  0  0
  -19.6618   34.8577  -17.4029 N   0  0  0  0  0  0  0  0  0  0  0  0
  -17.6030   34.7482  -18.6501 N   0  0  0  0  0  0  0  0  0  0  0  0
  -18.9756   35.6895  -16.5438 C   0  0  0  0  0  0  0  0  0  0  0  0
  -21.0610   34.4704  -17.2161 C   0  0  0  0  0  0  0  0  0  0  0  0
  -16.8787   35.5874  -17.7844 C   0  0  0  0  0  0  0  0  0  0  0  0
  -16.9038   34.2136  -19.8020 C   0  0  0  0  0  0  0  0  0  0  0  0
  -19.4312   36.3040  -15.4149 N   0  0  0  0  0  0  0  0  0  0  0  0
  -17.6679   36.0660  -16.6716 C   0  0  0  0  0  0  0  0  0  0  0  0
  -21.2350   33.0014  -16.7897 C   0  0  1  0  0  0  0  0  0  0  0  0
  -15.6986   35.8887  -17.9453 O   0  0  0  0  0  0  0  0  0  0  0  0
  -18.3812   37.0277  -14.8939 C   0  0  0  0  0  0  0  0  0  0  0  0
  -17.3012   36.8991  -15.6413 N   0  0  0  0  0  0  0  0  0  0  0  0
  -20.3355   32.7073  -15.5726 C   0  0  0  0  0  0  0  0  0  0  0  0
  -22.6953   32.6494  -16.4639 C   0  0  0  0  0  0  0  0  0  0  0  0
  -18.5111   37.8265  -13.6525 C   0  0  0  0  0  0  0  0  0  0  0  0
  -20.6300   31.3866  -14.9253 C   0  0  0  0  0  0  0  0  0  0  0  0
  -22.8416   31.1754  -16.0715 C   0  0  0  0  0  0  0  0  0  0  0  0
  -21.7515   30.6915  -15.1620 C   0  0  0  0  0  0  0  0  0  0  0  0
  -21.6255   34.6582  -18.1369 H   0  0  0  0  0  0  0  0  0  0  0  0
  -21.4867   35.1372  -16.4555 H   0  0  0  0  0  0  0  0  0  0  0  0
  -16.8968   33.1205  -19.7350 H   0  0  0  0  0  0  0  0  0  0  0  0
  -17.4451   34.4966  -20.7110 H   0  0  0  0  0  0  0  0  0  0  0  0
  -15.8739   34.5705  -19.8782 H   0  0  0  0  0  0  0  0  0  0  0  0
  -20.3583   36.2443  -15.0198 H   0  0  0  0  0  0  0  0  0  0  0  0
  -20.9115   32.3524  -17.6154 H   0  0  0  0  0  0  0  0  0  0  0  0
  -20.4448   33.4921  -14.8138 H   0  0  0  0  0  0  0  0  0  0  0  0
  -19.2873   32.7177  -15.8949 H   0  0  0  0  0  0  0  0  0  0  0  0
  -23.0514   33.2824  -15.6404 H   0  0  0  0  0  0  0  0  0  0  0  0
  -23.3478   32.8477  -17.3216 H   0  0  0  0  0  0  0  0  0  0  0  0
  -17.5647   38.3205  -13.4117 H   0  0  0  0  0  0  0  0  0  0  0  0
  -18.7855   37.1852  -12.8094 H   0  0  0  0  0  0  0  0  0  0  0  0
  -19.2785   38.5977  -13.7699 H   0  0  0  0  0  0  0  0  0  0  0  0
  -19.8906   30.9921  -14.2324 H   0  0  0  0  0  0  0  0  0  0  0  0
  -23.8131   31.0309  -15.5851 H   0  0  0  0  0  0  0  0  0  0  0  0
  -22.8386   30.5522  -16.9740 H   0  0  0  0  0  0  0  0  0  0  0  0
  -21.9027   29.7314  -14.6739 H   0  0  0  0  0  0  0  0  0  0  0  0
  1  2  2  0  0  0  0
  2  3  1  0  0  0  0
  2  4  1  0  0  0  0
  3  5  1  0  0  0  0
  3  6  1  0  0  0  0
  4  7  1  0  0  0  0
  4  8  1  0  0  0  0
  5  9  1  0  0  0  0
  5 10  2  0  0  0  0
  6 11  1  0  0  0  0
  6 21  1  0  0  0  0
  6 22  1  0  0  0  0
  7 12  2  0  0  0  0
  7 10  1  0  0  0  0
  8 23  1  0  0  0  0
  8 24  1  0  0  0  0
  8 25  1  0  0  0  0
  9 13  1  0  0  0  0
  9 26  1  0  0  0  0
 10 14  1  0  0  0  0
 11 15  1  0  0  0  0
 11 16  1  0  0  0  0
 11 27  1  0  0  0  0
 13 17  1  0  0  0  0
 13 14  2  0  0  0  0
 15 18  1  0  0  0  0
 15 28  1  0  0  0  0
 15 29  1  0  0  0  0
 16 19  1  0  0  0  0
 16 30  1  0  0  0  0
 16 31  1  0  0  0  0
 17 32  1  0  0  0  0
 17 33  1  0  0  0  0
 17 34  1  0  0  0  0
 18 20  2  0  0  0  0
 18 35  1  0  0  0  0
 19 20  1  0  0  0  0
 19 36  1  0  0  0  0
 19 37  1  0  0  0  0
 20 38  1  0  0  0  0
M  END
>  <Column 1>
Cc1nc2c(=O)n(C)c(=O)n(C[C@H]3CC=CCC3)c2[nH]1 ZINC000000000499

>  <Total Molweight>
274.323

>  <cLogP>
1.3972

>  <cLogS>
-2.507

>  <H-Acceptors>
6

>  <H-Donors>
1

>  <Total Surface Area>
209.25

>  <MMFF94 Energy>
-15.608

> <Gold.Version>
5.8.1

> <Gold.Id.Protein>
ID|2FQT|mol2

> <Gold.PLP.Fitness>
50.1825

> <Gold.PLP.PLP>
-47.4448

> <Gold.PLP.part.hbond>
-3.0000

> <Gold.PLP.part.metal>
0.0000

> <Gold.PLP.part.buried>
-6.5492

> <Gold.PLP.part.nonpolar>
-39.2074

> <Gold.PLP.part.repulsive>
0.5447

> <Gold.PLP.ligand.clash>
0.0000

> <Gold.PLP.ligand.torsion>
0.1469

> <Gold.PLP.Chemscore.Hbond>
1.0094

> <Gold.PLP.Chemscore.CHOScore>
0.0000

> <Gold.PLP.Chemscore.Metal>
0.0000

> <Gold.Chemscore.Hbonds>
donor molecule, donor type, donor heavy atom, donor atom, acceptor molecule, acceptor atom, score
      P1  H  1912  4380       L1     1  1.00
      P1  H  1239  3336       L1     1  0.01

> <Gold.PLP.Chemscore.Internal.Correction>
0.0033

> <Gold.Protein.RotatedTorsions>
[ 3412  950  949  948 ] final   69.64 input   60.00 | X-H torsion
[ 3476 1244 1243 1240 ] final  -26.93 input   60.00 | X-H torsion
[ 2649 1223 1224 1225 ] final  -55.18 input   60.00 | X-H torsion
[ 4380 1912 1911 1909 ] final  133.49 input   60.00 | X-H torsion
[ 3084  621  620  617 ] final -110.02 input   60.00 | X-H torsion

> <Gold.Protein.ActiveResidues>
 HIS54   GLU57   HIS58   ALA61   PHE62   ILE64   ARG65   ASP75   ILE76   ILE77  
 ASP78   ILE79   SER80   PRO81   ILE118  PRO119  ALA120  ALA121  ASN122  LYS124 
 GLN125  CYS126  GLY127  CO701   VAL4    GLU5    SER6    PHE7    GLU8    LEU9   
 HIS11   ARG20   HIS21   CYS22   GLY23   VAL24   HIS25   LYS35   ARG39   MET82  
 GLY83   CYS84   TYR89  

> <Gold.Protein.RotatedAtoms>
  -21.0942   37.1866  -17.1280 H   0  0  0  0  0  0  0  0  0  0  0  0  # atno 2649 bound_to 1223
  -20.1843   38.5669  -17.2466 H   0  0  0  0  0  0  0  0  0  0  0  0  # atno 2650 bound_to 1223
  -19.3637   27.5197  -14.0375 H   0  0  0  0  0  0  0  0  0  0  0  0  # atno 3084 bound_to 621 
  -28.0166   37.5678  -28.5018 H   0  0  0  0  0  0  0  0  0  0  0  0  # atno 3412 bound_to 950 
  -27.8606   38.8696  -29.5159 H   0  0  0  0  0  0  0  0  0  0  0  0  # atno 3413 bound_to 950 
  -28.9533   38.9154  -28.2704 H   0  0  0  0  0  0  0  0  0  0  0  0  # atno 3414 bound_to 950 
  -24.0435   32.5749  -21.2035 H   0  0  0  0  0  0  0  0  0  0  0  0  # atno 3476 bound_to 1244
  -19.8066   31.9212  -19.5046 H   0  0  0  0  0  0  0  0  0  0  0  0  # atno 4380 bound_to 1912
  -24.0571   31.9532  -19.6997 LP  0  0  0  0  0  0  0  0  0  0  0  0  # atno 4866 bound_to 1244
  -22.8899   31.5183  -20.7556 LP  0  0  0  0  0  0  0  0  0  0  0  0  # atno 4867 bound_to 1244
  -21.3344   38.4303  -16.0780 LP  0  0  0  0  0  0  0  0  0  0  0  0  # atno 4874 bound_to 1223
  -21.1489   31.1404  -19.0182 LP  0  0  0  0  0  0  0  0  0  0  0  0  # atno 4875 bound_to 1912
  -20.4844   30.8008  -20.4707 LP  0  0  0  0  0  0  0  0  0  0  0  0  # atno 4876 bound_to 1912
  -17.9552   27.8696  -13.3014 LP  0  0  0  0  0  0  0  0  0  0  0  0  # atno 4881 bound_to 621 
  -19.2594   28.8249  -13.0712 LP  0  0  0  0  0  0  0  0  0  0  0  0  # atno 4882 bound_to 621 

$$$$
Compound 2|Decoys_protonated|sdf|2|dock2
  -GOLD-   6122416153D 1   1.00000     0.00000

 32 33  0  0  0  0  0  0  0  0  3 V2000
  -20.0991   34.9802  -17.0037 S   0  0  0  0  0  0  0  0  0  0  0  0
  -19.7244   35.9508  -15.9916 O   0  0  0  0  0  0  0  0  0  0  0  0
  -19.7399   35.2089  -18.3910 O   0  0  0  0  0  0  0  0  0  0  0  0
  -19.4664   33.3965  -16.5291 C   0  0  0  0  0  0  0  0  0  0  0  0
  -21.8504   34.7498  -16.9239 C   0  0  0  0  0  0  0  0  0  0  0  0
  -20.1523   32.8365  -15.2865 C   0  0  2  0  0  0  0  0  0  0  0  0
  -22.2288   34.1230  -15.5972 C   0  0  0  0  0  0  0  0  0  0  0  0
  -21.6341   32.7834  -15.3905 N   0  0  0  0  0  0  0  0  0  0  0  0
  -19.6897   33.4899  -13.9791 C   0  0  0  0  0  0  0  0  0  0  0  0
  -22.0923   31.8421  -16.2635 N   0  0  0  0  0  0  0  0  0  0  0  0
  -23.3856   31.7348  -16.2585 C   0  0  0  0  0  0  0  0  0  0  0  0
  -24.0638   30.7955  -17.1105 C   0  0  0  0  0  0  0  0  0  0  0  0
  -25.1164   31.2234  -17.8779 O   0  0  0  0  0  0  0  0  0  0  0  0
  -23.8495   29.4442  -17.3264 C   0  0  0  0  0  0  0  0  0  0  0  0
  -25.5548   30.1392  -18.5690 C   0  0  0  0  0  0  0  0  0  0  0  0
  -24.8173   29.0180  -18.2730 C   0  0  0  0  0  0  0  0  0  0  0  0
  -26.6623   30.3430  -19.4488 N   0  3  0  0  0  0  0  0  0  0  0  0
  -27.0834   29.3723  -20.0889 O   0  0  0  0  0  0  0  0  0  0  0  0
  -27.1144   31.4956  -19.4963 O   0  5  0  0  0  0  0  0  0  0  0  0
  -18.3874   33.5047  -16.3802 H   0  0  0  0  0  0  0  0  0  0  0  0
  -19.6216   32.7294  -17.3848 H   0  0  0  0  0  0  0  0  0  0  0  0
  -22.1484   34.1271  -17.7732 H   0  0  0  0  0  0  0  0  0  0  0  0
  -22.3158   35.7334  -17.0387 H   0  0  0  0  0  0  0  0  0  0  0  0
  -19.8113   31.7945  -15.1990 H   0  0  0  0  0  0  0  0  0  0  0  0
  -21.9729   34.7863  -14.7640 H   0  0  0  0  0  0  0  0  0  0  0  0
  -23.3211   34.0230  -15.5560 H   0  0  0  0  0  0  0  0  0  0  0  0
  -19.9566   34.5460  -13.9010 H   0  0  0  0  0  0  0  0  0  0  0  0
  -18.6010   33.4163  -13.8817 H   0  0  0  0  0  0  0  0  0  0  0  0
  -20.1300   32.9746  -13.1178 H   0  0  0  0  0  0  0  0  0  0  0  0
  -24.0165   32.3604  -15.6000 H   0  0  0  0  0  0  0  0  0  0  0  0
  -23.0858   28.8389  -16.8560 H   0  0  0  0  0  0  0  0  0  0  0  0
  -24.9591   28.0276  -18.6846 H   0  0  0  0  0  0  0  0  0  0  0  0
  1  2  2  0  0  0  0
  1  3  2  0  0  0  0
  1  4  1  0  0  0  0
  1  5  1  0  0  0  0
  4  6  1  0  0  0  0
  4 20  1  0  0  0  0
  4 21  1  0  0  0  0
  5  7  1  0  0  0  0
  5 22  1  0  0  0  0
  5 23  1  0  0  0  0
  6  8  1  0  0  0  0
  6  9  1  0  0  0  0
  6 24  1  0  0  0  0
  7  8  1  0  0  0  0
  7 25  1  0  0  0  0
  7 26  1  0  0  0  0
  8 10  1  0  0  0  0
  9 27  1  0  0  0  0
  9 28  1  0  0  0  0
  9 29  1  0  0  0  0
 10 11  2  0  0  0  0
 11 12  1  0  0  0  0
 11 30  1  0  0  0  0
 12 13  1  0  0  0  0
 12 14  2  0  0  0  0
 13 15  1  0  0  0  0
 14 16  1  0  0  0  0
 14 31  1  0  0  0  0
 15 17  1  0  0  0  0
 15 16  2  0  0  0  0
 16 32  1  0  0  0  0
 17 18  2  0  0  0  0
 17 19  1  0  0  0  0
M  CHG  1  17   1
M  CHG  1  19  -1
M  END
>  <Column 1>
C[C@@H]1CS(=O)(=O)CCN1/N=C/c1ccc([N+](=O)[O-])o1 ZINC000000000542

>  <Total Molweight>
287.295

>  <cLogP>
-0.2513

>  <cLogS>
-3.005

>  <H-Acceptors>
7

>  <H-Donors>
0

>  <Total Surface Area>
202.8

>  <MMFF94 Energy>
58.942

> <Gold.Version>
5.8.1

> <Gold.Id.Protein>
ID|2FQT|mol2

> <Gold.PLP.Fitness>
58.4791

> <Gold.PLP.PLP>
-41.9019

> <Gold.PLP.part.hbond>
-4.2112

> <Gold.PLP.part.metal>
-1.9729

> <Gold.PLP.part.buried>
0.3517

> <Gold.PLP.part.nonpolar>
-38.2676

> <Gold.PLP.part.repulsive>
0.5116

> <Gold.PLP.ligand.clash>
0.5520

> <Gold.PLP.ligand.torsion>
0.4610

> <Gold.PLP.Chemscore.Hbond>
2.1804

> <Gold.PLP.Chemscore.CHOScore>
0.0000

> <Gold.PLP.Chemscore.Metal>
1.9093

> <Gold.Chemscore.Hbonds>
donor molecule, donor type, donor heavy atom, donor atom, acceptor molecule, acceptor atom, score
      P1  H   966  3428       L1    18  0.78
      P1  H  1244  3476       L1    13  0.33
      P1  H  1223  2650       L1     2  0.07
      P1  H  1239  3336       L1     3  1.00
      P1  M  1222  1222       L1    18  0.97
      P1  M  1222  1222       L1    19  0.94

> <Gold.PLP.Chemscore.Internal.Correction>
0.0544

> <Gold.Protein.RotatedTorsions>
[ 3412  950  949  948 ] final   15.07 input   60.00 | X-H torsion
[ 3476 1244 1243 1240 ] final -150.46 input   60.00 | X-H torsion
[ 2649 1223 1224 1225 ] final  166.03 input   60.00 | X-H torsion
[ 4380 1912 1911 1909 ] final -148.28 input   60.00 | X-H torsion
[ 3084  621  620  617 ] final   89.15 input   60.00 | X-H torsion

> <Gold.Protein.ActiveResidues>
 HIS54   GLU57   HIS58   ALA61   PHE62   ILE64   ARG65   ASP75   ILE76   ILE77  
 ASP78   ILE79   SER80   PRO81   ILE118  PRO119  ALA120  ALA121  ASN122  LYS124 
 GLN125  CYS126  GLY127  CO701   VAL4    GLU5    SER6    PHE7    GLU8    LEU9   
 HIS11   ARG20   HIS21   CYS22   GLY23   VAL24   HIS25   LYS35   ARG39   MET82  
 GLY83   CYS84   TYR89  

> <Gold.Protein.RotatedAtoms>
  -21.1439   38.6707  -16.1258 H   0  0  0  0  0  0  0  0  0  0  0  0  # atno 2649 bound_to 1223
  -21.2969   37.2085  -16.8912 H   0  0  0  0  0  0  0  0  0  0  0  0  # atno 2650 bound_to 1223
  -18.1407   28.4084  -12.9776 H   0  0  0  0  0  0  0  0  0  0  0  0  # atno 3084 bound_to 621 
  -28.6400   37.9605  -28.0256 H   0  0  0  0  0  0  0  0  0  0  0  0  # atno 3412 bound_to 950 
  -27.5948   38.0597  -29.3082 H   0  0  0  0  0  0  0  0  0  0  0  0  # atno 3413 bound_to 950 
  -28.5957   39.3326  -28.9543 H   0  0  0  0  0  0  0  0  0  0  0  0  # atno 3414 bound_to 950 
  -24.0115   31.9183  -19.6906 H   0  0  0  0  0  0  0  0  0  0  0  0  # atno 3476 bound_to 1244
  -19.9678   31.2263  -20.4463 H   0  0  0  0  0  0  0  0  0  0  0  0  # atno 4380 bound_to 1912
  -22.8910   31.5414  -20.8088 LP  0  0  0  0  0  0  0  0  0  0  0  0  # atno 4866 bound_to 1244
  -24.0882   32.5915  -21.1701 LP  0  0  0  0  0  0  0  0  0  0  0  0  # atno 4867 bound_to 1244
  -20.1893   38.3064  -17.4154 LP  0  0  0  0  0  0  0  0  0  0  0  0  # atno 4874 bound_to 1223
  -20.2304   31.8958  -18.9866 LP  0  0  0  0  0  0  0  0  0  0  0  0  # atno 4875 bound_to 1912
  -21.2406   30.7451  -19.5539 LP  0  0  0  0  0  0  0  0  0  0  0  0  # atno 4876 bound_to 1912
  -19.6951   28.5083  -13.4487 LP  0  0  0  0  0  0  0  0  0  0  0  0  # atno 4881 bound_to 621 
  -18.7511   27.2912  -13.9912 LP  0  0  0  0  0  0  0  0  0  0  0  0  # atno 4882 bound_to 621 

$$$$
Compound 3|Decoys_protonated|sdf|3|dock3
  -GOLD-   6122416153D 1   1.00000     0.00000

 28 30  0  0  0  0  0  0  0  0  1 V2000
  -18.0962   33.3093  -19.7977 O   0  0  0  0  0  0  0  0  0  0  0  0
  -18.5197   33.8709  -18.8047 C   0  0  0  0  0  0  0  0  0  0  0  0
  -18.1310   35.0802  -18.3412 N   0  0  0  0  0  0  0  0  0  0  0  0
  -19.4863   33.3752  -17.9665 N   0  0  0  0  0  0  0  0  0  0  0  0
  -18.8199   35.4168  -17.2173 C   0  0  0  0  0  0  0  0  0  0  0  0
  -19.7926   34.2780  -16.8709 C   0  0  1  0  0  0  0  0  0  0  0  0
  -18.6745   36.4584  -16.5955 O   0  0  0  0  0  0  0  0  0  0  0  0
  -21.2350   34.7878  -16.9093 C   0  0  0  0  0  0  0  0  0  0  0  0
  -19.4488   33.6773  -15.5110 C   0  0  0  0  0  0  0  0  0  0  0  0
  -22.2240   33.7982  -16.3360 C   0  0  0  0  0  0  0  0  0  0  0  0
  -20.3580   32.4945  -15.1853 C   0  0  0  0  0  0  0  0  0  0  0  0
  -21.8131   32.7465  -15.4962 C   0  0  0  0  0  0  0  0  0  0  0  0
  -23.5901   33.9712  -16.6070 C   0  0  0  0  0  0  0  0  0  0  0  0
  -22.7756   31.8688  -14.9744 C   0  0  0  0  0  0  0  0  0  0  0  0
  -24.5364   33.0971  -16.0740 C   0  0  0  0  0  0  0  0  0  0  0  0
  -24.1291   32.0447  -15.2599 C   0  0  0  0  0  0  0  0  0  0  0  0
  -17.4312   35.6525  -18.7805 H   0  0  0  0  0  0  0  0  0  0  0  0
  -19.9390   32.4873  -18.1469 H   0  0  0  0  0  0  0  0  0  0  0  0
  -21.5180   35.0311  -17.9420 H   0  0  0  0  0  0  0  0  0  0  0  0
  -21.3213   35.7137  -16.3254 H   0  0  0  0  0  0  0  0  0  0  0  0
  -19.5633   34.4457  -14.7342 H   0  0  0  0  0  0  0  0  0  0  0  0
  -18.4008   33.3542  -15.4696 H   0  0  0  0  0  0  0  0  0  0  0  0
  -20.0349   31.6172  -15.7597 H   0  0  0  0  0  0  0  0  0  0  0  0
  -20.2439   32.2483  -14.1225 H   0  0  0  0  0  0  0  0  0  0  0  0
  -23.9253   34.7923  -17.2372 H   0  0  0  0  0  0  0  0  0  0  0  0
  -22.4735   31.0396  -14.3378 H   0  0  0  0  0  0  0  0  0  0  0  0
  -25.5915   33.2384  -16.2931 H   0  0  0  0  0  0  0  0  0  0  0  0
  -24.8654   31.3609  -14.8457 H   0  0  0  0  0  0  0  0  0  0  0  0
  1  2  2  0  0  0  0
  2  3  1  0  0  0  0
  2  4  1  0  0  0  0
  3  5  1  0  0  0  0
  3 17  1  0  0  0  0
  4  6  1  0  0  0  0
  4 18  1  0  0  0  0
  5  7  2  0  0  0  0
  6  8  1  0  0  0  0
  6  9  1  0  0  0  0
  6  5  1  0  0  0  0
  8 10  1  0  0  0  0
  8 19  1  0  0  0  0
  8 20  1  0  0  0  0
  9 11  1  0  0  0  0
  9 21  1  0  0  0  0
  9 22  1  0  0  0  0
 10 12  2  0  0  0  0
 10 13  1  0  0  0  0
 11 12  1  0  0  0  0
 11 23  1  0  0  0  0
 11 24  1  0  0  0  0
 12 14  1  0  0  0  0
 13 15  2  0  0  0  0
 13 25  1  0  0  0  0
 14 16  2  0  0  0  0
 14 26  1  0  0  0  0
 15 16  1  0  0  0  0
 15 27  1  0  0  0  0
 16 28  1  0  0  0  0
M  END
>  <Column 1>
O=C1NC(=O)[C@]2(CCc3ccccc3C2)N1 ZINC000000000754

>  <Total Molweight>
216.239

>  <cLogP>
1.0042

>  <cLogS>
-2.699

>  <H-Acceptors>
4

>  <H-Donors>
2

>  <Total Surface Area>
156.37

>  <MMFF94 Energy>
-44.744

> <Gold.Version>
5.8.1

> <Gold.Id.Protein>
ID|2FQT|mol2

> <Gold.PLP.Fitness>
42.2314

> <Gold.PLP.PLP>
-39.3403

> <Gold.PLP.part.hbond>
-2.8058

> <Gold.PLP.part.metal>
0.0000

> <Gold.PLP.part.buried>
-6.7565

> <Gold.PLP.part.nonpolar>
-31.9859

> <Gold.PLP.part.repulsive>
2.2176

> <Gold.PLP.ligand.clash>
0.0000

> <Gold.PLP.ligand.torsion>
0.0000

> <Gold.PLP.Chemscore.Hbond>
0.9637

> <Gold.PLP.Chemscore.CHOScore>
0.0000

> <Gold.PLP.Chemscore.Metal>
0.0000

> <Gold.Chemscore.Hbonds>
donor molecule, donor type, donor heavy atom, donor atom, acceptor molecule, acceptor atom, score
      L1  H     4    18       P1  1912  0.78
      P1  H  1223  2649       L1     7  0.19

> <Gold.PLP.Chemscore.Internal.Correction>
0.0000

> <Gold.Protein.RotatedTorsions>
[ 3412  950  949  948 ] final   90.46 input   60.00 | X-H torsion
[ 3476 1244 1243 1240 ] final -122.90 input   60.00 | X-H torsion
[ 2649 1223 1224 1225 ] final    7.71 input   60.00 | X-H torsion
[ 4380 1912 1911 1909 ] final  -57.49 input   60.00 | X-H torsion
[ 3084  621  620  617 ] final  168.94 input   60.00 | X-H torsion

> <Gold.Protein.ActiveResidues>
 HIS54   GLU57   HIS58   ALA61   PHE62   ILE64   ARG65   ASP75   ILE76   ILE77  
 ASP78   ILE79   SER80   PRO81   ILE118  PRO119  ALA120  ALA121  ASN122  LYS124 
 GLN125  CYS126  GLY127  CO701   VAL4    GLU5    SER6    PHE7    GLU8    LEU9   
 HIS11   ARG20   HIS21   CYS22   GLY23   VAL24   HIS25   LYS35   ARG39   MET82  
 GLY83   CYS84   TYR89  

> <Gold.Protein.RotatedAtoms>
  -20.3805   37.7317  -17.5642 H   0  0  0  0  0  0  0  0  0  0  0  0  # atno 2649 bound_to 1223
  -20.6839   38.9333  -16.4637 H   0  0  0  0  0  0  0  0  0  0  0  0  # atno 2650 bound_to 1223
  -18.2007   27.4427  -13.6889 H   0  0  0  0  0  0  0  0  0  0  0  0  # atno 3084 bound_to 621 
  -27.8093   37.6161  -28.7744 H   0  0  0  0  0  0  0  0  0  0  0  0  # atno 3412 bound_to 950 
  -28.0800   39.1188  -29.4192 H   0  0  0  0  0  0  0  0  0  0  0  0  # atno 3413 bound_to 950 
  -28.9412   38.6179  -28.0945 H   0  0  0  0  0  0  0  0  0  0  0  0  # atno 3414 bound_to 950 
  -24.2895   32.2081  -19.8844 H   0  0  0  0  0  0  0  0  0  0  0  0  # atno 3476 bound_to 1244
  -21.0636   30.6290  -19.9779 H   0  0  0  0  0  0  0  0  0  0  0  0  # atno 4380 bound_to 1912
  -22.9593   31.4148  -20.3834 LP  0  0  0  0  0  0  0  0  0  0  0  0  # atno 4866 bound_to 1244
  -23.7399   32.4262  -21.4004 LP  0  0  0  0  0  0  0  0  0  0  0  0  # atno 4867 bound_to 1244
  -21.5453   37.5323  -16.4195 LP  0  0  0  0  0  0  0  0  0  0  0  0  # atno 4874 bound_to 1223
  -19.7462   31.5597  -20.1927 LP  0  0  0  0  0  0  0  0  0  0  0  0  # atno 4875 bound_to 1912
  -20.6213   31.6828  -18.8195 LP  0  0  0  0  0  0  0  0  0  0  0  0  # atno 4876 bound_to 1912
  -18.6583   28.7851  -12.8910 LP  0  0  0  0  0  0  0  0  0  0  0  0  # atno 4881 bound_to 621 
  -19.7275   27.9871  -13.8326 LP  0  0  0  0  0  0  0  0  0  0  0  0  # atno 4882 bound_to 621 

$$$$
Compound 4|Decoys_protonated|sdf|4|dock10
  -GOLD-   6122416153D 1   1.00000     0.00000

 27 28  0  0  0  0  0  0  0  0  1 V2000
  -18.9623   33.5934  -18.6615 N   0  0  0  0  0  0  0  0  0  0  0  0
  -19.5917   34.1096  -17.5766 N   0  0  0  0  0  0  0  0  0  0  0  0
  -17.8911   34.3700  -18.8025 C   0  0  0  0  0  0  0  0  0  0  0  0
  -18.9395   35.2002  -17.0262 C   0  0  0  0  0  0  0  0  0  0  0  0
  -20.8166   33.4736  -17.1601 C   0  0  0  0  0  0  0  0  0  0  0  0
  -17.8285   35.3853  -17.8245 C   0  0  0  0  0  0  0  0  0  0  0  0
  -16.8965   34.1995  -19.8950 C   0  0  0  0  0  0  0  0  0  0  0  0
  -19.2972   35.9346  -15.9410 N   0  0  0  0  0  0  0  0  0  0  0  0
  -16.7212   36.3757  -17.7546 C   0  0  0  0  0  0  0  0  0  0  0  0
  -15.6122   34.9933  -19.5947 C   0  0  0  0  0  0  0  0  0  0  0  0
  -20.4549   35.7391  -15.1065 C   0  0  0  0  0  0  0  0  0  0  0  0
  -15.9171   36.4068  -19.0674 C   0  0  0  0  0  0  0  0  0  0  0  0
  -21.0450   32.6423  -17.8337 H   0  0  0  0  0  0  0  0  0  0  0  0
  -21.6272   34.2027  -17.2112 H   0  0  0  0  0  0  0  0  0  0  0  0
  -20.6849   33.0837  -16.1491 H   0  0  0  0  0  0  0  0  0  0  0  0
  -17.3357   34.5625  -20.8321 H   0  0  0  0  0  0  0  0  0  0  0  0
  -16.6501   33.1412  -20.0344 H   0  0  0  0  0  0  0  0  0  0  0  0
  -18.6998   36.7085  -15.6582 H   0  0  0  0  0  0  0  0  0  0  0  0
  -17.1106   37.3776  -17.5423 H   0  0  0  0  0  0  0  0  0  0  0  0
  -16.0541   36.1006  -16.9285 H   0  0  0  0  0  0  0  0  0  0  0  0
  -15.0171   34.4557  -18.8452 H   0  0  0  0  0  0  0  0  0  0  0  0
  -15.0019   35.0562  -20.5026 H   0  0  0  0  0  0  0  0  0  0  0  0
  -20.4581   36.4893  -14.3085 H   0  0  0  0  0  0  0  0  0  0  0  0
  -20.4394   34.7574  -14.6253 H   0  0  0  0  0  0  0  0  0  0  0  0
  -21.3817   35.8675  -15.6723 H   0  0  0  0  0  0  0  0  0  0  0  0
  -14.9820   36.9558  -18.9083 H   0  0  0  0  0  0  0  0  0  0  0  0
  -16.4846   36.9556  -19.8301 H   0  0  0  0  0  0  0  0  0  0  0  0
  1  2  1  0  0  0  0
  1  3  2  0  0  0  0
  2  4  1  0  0  0  0
  2  5  1  0  0  0  0
  3  6  1  0  0  0  0
  3  7  1  0  0  0  0
  4  8  1  0  0  0  0
  4  6  2  0  0  0  0
  5 13  1  0  0  0  0
  5 14  1  0  0  0  0
  5 15  1  0  0  0  0
  6  9  1  0  0  0  0
  7 10  1  0  0  0  0
  7 16  1  0  0  0  0
  7 17  1  0  0  0  0
  8 11  1  0  0  0  0
  8 18  1  0  0  0  0
  9 12  1  0  0  0  0
  9 19  1  0  0  0  0
  9 20  1  0  0  0  0
 10 12  1  0  0  0  0
 10 21  1  0  0  0  0
 10 22  1  0  0  0  0
 11 23  1  0  0  0  0
 11 24  1  0  0  0  0
 11 25  1  0  0  0  0
 12 26  1  0  0  0  0
 12 27  1  0  0  0  0
M  END
>  <Column 1>
CNc1c2c(nn1C)CCCC2 ZINC000000000757

>  <Total Molweight>
165.239

>  <cLogP>
0.9311

>  <cLogS>
-2.084

>  <H-Acceptors>
3

>  <H-Donors>
1

>  <Total Surface Area>
138.74

>  <MMFF94 Energy>
31.419

> <Gold.Version>
5.8.1

> <Gold.Id.Protein>
ID|2FQT|mol2

> <Gold.PLP.Fitness>
37.6758

> <Gold.PLP.PLP>
-34.6758

> <Gold.PLP.part.hbond>
-2.0000

> <Gold.PLP.part.metal>
0.0000

> <Gold.PLP.part.buried>
-3.8625

> <Gold.PLP.part.nonpolar>
-28.2378

> <Gold.PLP.part.repulsive>
0.1247

> <Gold.PLP.ligand.clash>
0.0000

> <Gold.PLP.ligand.torsion>
0.0000

> <Gold.PLP.Chemscore.Hbond>
1.0000

> <Gold.PLP.Chemscore.CHOScore>
0.0000

> <Gold.PLP.Chemscore.Metal>
0.0000

> <Gold.Chemscore.Hbonds>
donor molecule, donor type, donor heavy atom, donor atom, acceptor molecule, acceptor atom, score
      P1  H  1912  4380       L1     1  1.00

> <Gold.PLP.Chemscore.Internal.Correction>
0.0000

> <Gold.Protein.RotatedTorsions>
[ 3412  950  949  948 ] final  -20.37 input   60.00 | X-H torsion
[ 3476 1244 1243 1240 ] final  -38.05 input   60.00 | X-H torsion
[ 2649 1223 1224 1225 ] final  -83.70 input   60.00 | X-H torsion
[ 4380 1912 1911 1909 ] final  136.26 input   60.00 | X-H torsion
[ 3084  621  620  617 ] final   11.21 input   60.00 | X-H torsion

> <Gold.Protein.ActiveResidues>
 HIS54   GLU57   HIS58   ALA61   PHE62   ILE64   ARG65   ASP75   ILE76   ILE77  
 ASP78   ILE79   SER80   PRO81   ILE118  PRO119  ALA120  ALA121  ASN122  LYS124 
 GLN125  CYS126  GLY127  CO701   VAL4    GLU5    SER6    PHE7    GLU8    LEU9   
 HIS11   ARG20   HIS21   CYS22   GLY23   VAL24   HIS25   LYS35   ARG39   MET82  
 GLY83   CYS84   TYR89  

> <Gold.Protein.RotatedAtoms>
  -21.3853   37.2562  -16.7637 H   0  0  0  0  0  0  0  0  0  0  0  0  # atno 2649 bound_to 1223
  -20.2006   38.1618  -17.4873 H   0  0  0  0  0  0  0  0  0  0  0  0  # atno 2650 bound_to 1223
  -19.2398   28.8225  -13.0631 H   0  0  0  0  0  0  0  0  0  0  0  0  # atno 3084 bound_to 621 
  -28.9078   38.4776  -28.0437 H   0  0  0  0  0  0  0  0  0  0  0  0  # atno 3412 bound_to 950 
  -27.7361   37.6728  -28.8962 H   0  0  0  0  0  0  0  0  0  0  0  0  # atno 3413 bound_to 950 
  -28.1867   39.2025  -29.3482 H   0  0  0  0  0  0  0  0  0  0  0  0  # atno 3414 bound_to 950 
  -24.1654   32.6126  -21.0745 H   0  0  0  0  0  0  0  0  0  0  0  0  # atno 3476 bound_to 1244
  -19.7889   31.9110  -19.5451 H   0  0  0  0  0  0  0  0  0  0  0  0  # atno 4380 bound_to 1912
  -23.9209   31.8365  -19.6653 LP  0  0  0  0  0  0  0  0  0  0  0  0  # atno 4866 bound_to 1244
  -22.9033   31.5971  -20.9199 LP  0  0  0  0  0  0  0  0  0  0  0  0  # atno 4867 bound_to 1244
  -21.0315   38.7608  -16.1998 LP  0  0  0  0  0  0  0  0  0  0  0  0  # atno 4874 bound_to 1223
  -21.1291   31.1720  -18.9919 LP  0  0  0  0  0  0  0  0  0  0  0  0  # atno 4875 bound_to 1912
  -20.5220   30.7794  -20.4561 LP  0  0  0  0  0  0  0  0  0  0  0  0  # atno 4876 bound_to 1912
  -19.3826   27.5291  -14.0403 LP  0  0  0  0  0  0  0  0  0  0  0  0  # atno 4881 bound_to 621 
  -17.9567   27.8534  -13.3135 LP  0  0  0  0  0  0  0  0  0  0  0  0  # atno 4882 bound_to 621 

$$$$
Compound 5|Decoys_protonated|sdf|5|dock3
  -GOLD-   6122416153D 1   1.00000     0.00000

 34 35  0  0  0  0  0  0  0  0  1 V2000
  -17.4612   37.4697  -12.8480 Cl  0  0  0  0  0  0  0  0  0  0  0  0
  -18.2706   36.3214  -13.8515 C   0  0  0  0  0  0  0  0  0  0  0  0
  -18.5721   36.5283  -15.1968 C   0  0  0  0  0  0  0  0  0  0  0  0
  -18.6462   35.1173  -13.2486 C   0  0  0  0  0  0  0  0  0  0  0  0
  -18.1040   38.0116  -16.0314 S   0  0  0  0  0  0  0  0  0  0  0  0
  -19.2436   35.5335  -15.9314 C   0  0  0  0  0  0  0  0  0  0  0  0
  -19.3152   34.1293  -13.9785 C   0  0  0  0  0  0  0  0  0  0  0  0
  -18.4401   37.8881  -17.4326 O   0  0  0  0  0  0  0  0  0  0  0  0
  -16.7841   38.4076  -15.6042 O   0  0  0  0  0  0  0  0  0  0  0  0
  -19.1857   39.1489  -15.4374 N   0  0  0  0  0  0  0  0  0  0  0  0
  -19.6343   34.3199  -15.3338 C   0  0  0  0  0  0  0  0  0  0  0  0
  -20.3489   33.2348  -16.1434 C   0  0  2  0  0  0  0  0  0  0  0  0
  -19.6544   32.9869  -17.3575 O   0  0  0  0  0  0  0  0  0  0  0  0
  -21.6951   33.6208  -16.5133 N   0  0  0  0  0  0  0  0  0  0  0  0
  -20.4322   31.9047  -15.3620 C   0  0  0  0  0  0  0  0  0  0  0  0
  -22.7349   32.9834  -15.8860 C   0  0  0  0  0  0  0  0  0  0  0  0
  -21.9172   34.7963  -17.3359 C   0  0  0  0  0  0  0  0  0  0  0  0
  -22.1534   31.7175  -14.8140 S   0  0  0  0  0  0  0  0  0  0  0  0
  -23.9701   33.2899  -16.0580 N   0  0  0  0  0  0  0  0  0  0  0  0
  -25.0116   32.5639  -15.3489 C   0  0  0  0  0  0  0  0  0  0  0  0
  -18.4206   34.9357  -12.1991 H   0  0  0  0  0  0  0  0  0  0  0  0
  -19.4658   35.7051  -16.9856 H   0  0  0  0  0  0  0  0  0  0  0  0
  -19.5902   33.2074  -13.4673 H   0  0  0  0  0  0  0  0  0  0  0  0
  -19.2231   39.0929  -14.4193 H   0  0  0  0  0  0  0  0  0  0  0  0
  -20.0929   39.0352  -15.8927 H   0  0  0  0  0  0  0  0  0  0  0  0
  -19.2518   33.8466  -17.5676 H   0  0  0  0  0  0  0  0  0  0  0  0
  -20.1931   31.0504  -16.0052 H   0  0  0  0  0  0  0  0  0  0  0  0
  -19.7595   31.8685  -14.4989 H   0  0  0  0  0  0  0  0  0  0  0  0
  -21.0020   35.1300  -17.8364 H   0  0  0  0  0  0  0  0  0  0  0  0
  -22.2880   35.6261  -16.7251 H   0  0  0  0  0  0  0  0  0  0  0  0
  -22.6542   34.5832  -18.1173 H   0  0  0  0  0  0  0  0  0  0  0  0
  -24.9241   32.6842  -14.2641 H   0  0  0  0  0  0  0  0  0  0  0  0
  -25.0188   31.5011  -15.6124 H   0  0  0  0  0  0  0  0  0  0  0  0
  -25.9851   32.9724  -15.6390 H   0  0  0  0  0  0  0  0  0  0  0  0
  1  2  1  0  0  0  0
  2  3  2  0  0  0  0
  2  4  1  0  0  0  0
  3  5  1  0  0  0  0
  3  6  1  0  0  0  0
  4  7  2  0  0  0  0
  4 21  1  0  0  0  0
  5  8  2  0  0  0  0
  5  9  2  0  0  0  0
  5 10  1  0  0  0  0
  6 11  2  0  0  0  0
  6 22  1  0  0  0  0
  7 11  1  0  0  0  0
  7 23  1  0  0  0  0
 10 24  1  0  0  0  0
 10 25  1  0  0  0  0
 11 12  1  0  0  0  0
 12 13  1  0  0  0  0
 12 14  1  0  0  0  0
 12 15  1  0  0  0  0
 13 26  1  0  0  0  0
 14 16  1  0  0  0  0
 14 17  1  0  0  0  0
 15 18  1  0  0  0  0
 15 27  1  0  0  0  0
 15 28  1  0  0  0  0
 16 19  2  0  0  0  0
 16 18  1  0  0  0  0
 17 29  1  0  0  0  0
 17 30  1  0  0  0  0
 17 31  1  0  0  0  0
 19 20  1  0  0  0  0
 20 32  1  0  0  0  0
 20 33  1  0  0  0  0
 20 34  1  0  0  0  0
M  END
>  <Column 1>
C/N=C1\SC[C@](O)(c2ccc(Cl)c(S(N)(=O)=O)c2)N1C ZINC000000000785

>  <Total Molweight>
335.835

>  <cLogP>
0.8747

>  <cLogS>
-1.98

>  <H-Acceptors>
6

>  <H-Donors>
2

>  <Total Surface Area>
218.08

>  <MMFF94 Energy>
-129.84

> <Gold.Version>
5.8.1

> <Gold.Id.Protein>
ID|2FQT|mol2

> <Gold.PLP.Fitness>
55.6905

> <Gold.PLP.PLP>
-45.5994

> <Gold.PLP.part.hbond>
-4.0000

> <Gold.PLP.part.metal>
0.0000

> <Gold.PLP.part.buried>
-7.0688

> <Gold.PLP.part.nonpolar>
-34.8481

> <Gold.PLP.part.repulsive>
0.0374

> <Gold.PLP.ligand.clash>
0.0000

> <Gold.PLP.ligand.torsion>
1.2768

> <Gold.PLP.Chemscore.Hbond>
3.5680

> <Gold.PLP.Chemscore.CHOScore>
0.0000

> <Gold.PLP.Chemscore.Metal>
0.0000

> <Gold.Chemscore.Hbonds>
donor molecule, donor type, donor heavy atom, donor atom, acceptor molecule, acceptor atom, score
      L1  H    10    25       P1  1223  0.99
      P1  H  1223  2650       L1     8  0.58
      P1  H  1912  4380       L1    13  1.00
      P1  H  1230  2756       L1     8  1.00

> <Gold.PLP.Chemscore.Internal.Correction>
1.9407

> <Gold.Protein.RotatedTorsions>
[ 3412  950  949  948 ] final   74.02 input   60.00 | X-H torsion
[ 3476 1244 1243 1240 ] final  151.29 input   60.00 | X-H torsion
[ 2649 1223 1224 1225 ] final -113.14 input   60.00 | X-H torsion
[ 4380 1912 1911 1909 ] final   88.51 input   60.00 | X-H torsion
[ 3084  621  620  617 ] final  116.30 input   60.00 | X-H torsion

> <Gold.Protein.ActiveResidues>
 HIS54   GLU57   HIS58   ALA61   PHE62   ILE64   ARG65   ASP75   ILE76   ILE77  
 ASP78   ILE79   SER80   PRO81   ILE118  PRO119  ALA120  ALA121  ASN122  LYS124 
 GLN125  CYS126  GLY127  CO701   VAL4    GLU5    SER6    PHE7    GLU8    LEU9   
 HIS11   ARG20   HIS21   CYS22   GLY23   VAL24   HIS25   LYS35   ARG39   MET82  
 GLY83   CYS84   TYR89  

> <Gold.Protein.RotatedAtoms>
  -21.5545   37.5327  -16.4012 H   0  0  0  0  0  0  0  0  0  0  0  0  # atno 2649 bound_to 1223
  -20.3880   37.7196  -17.5637 H   0  0  0  0  0  0  0  0  0  0  0  0  # atno 2650 bound_to 1223
  -17.9731   28.0528  -13.1737 H   0  0  0  0  0  0  0  0  0  0  0  0  # atno 3084 bound_to 621 
  -27.9692   37.5684  -28.5574 H   0  0  0  0  0  0  0  0  0  0  0  0  # atno 3412 bound_to 950 
  -27.9031   38.9277  -29.5035 H   0  0  0  0  0  0  0  0  0  0  0  0  # atno 3413 bound_to 950 
  -28.9582   38.8567  -28.2272 H   0  0  0  0  0  0  0  0  0  0  0  0  # atno 3414 bound_to 950 
  -23.2630   31.4536  -19.9235 H   0  0  0  0  0  0  0  0  0  0  0  0  # atno 3476 bound_to 1244
  -20.2721   31.8735  -18.9625 H   0  0  0  0  0  0  0  0  0  0  0  0  # atno 4380 bound_to 1912
  -23.2934   32.0981  -21.4174 LP  0  0  0  0  0  0  0  0  0  0  0  0  # atno 4866 bound_to 1244
  -24.4396   32.5028  -20.3269 LP  0  0  0  0  0  0  0  0  0  0  0  0  # atno 4867 bound_to 1244
  -20.6802   38.9240  -16.4816 LP  0  0  0  0  0  0  0  0  0  0  0  0  # atno 4874 bound_to 1223
  -21.2308   30.7243  -19.6015 LP  0  0  0  0  0  0  0  0  0  0  0  0  # atno 4875 bound_to 1912
  -19.9337   31.2649  -20.4332 LP  0  0  0  0  0  0  0  0  0  0  0  0  # atno 4876 bound_to 1912
  -19.4409   28.7553  -13.1839 LP  0  0  0  0  0  0  0  0  0  0  0  0  # atno 4881 bound_to 621 
  -19.1741   27.4024  -14.0585 LP  0  0  0  0  0  0  0  0  0  0  0  0  # atno 4882 bound_to 621 

$$$$
Compound 6|Decoys_protonated|sdf|6|dock1
  -GOLD-   6122416153D 1   1.00000     0.00000

 15 16  0  0  0  0  0  0  0  0  1 V2000
  -18.9023   33.6430  -17.1416 N   0  0  0  0  0  0  0  0  0  0  0  0
  -19.8989   33.0907  -16.4298 C   0  0  0  0  0  0  0  0  0  0  0  0
  -19.1640   34.7536  -17.8639 C   0  0  0  0  0  0  0  0  0  0  0  0
  -19.6314   31.9644  -15.6979 N   0  0  0  0  0  0  0  0  0  0  0  0
  -21.1305   33.7081  -16.4914 C   0  0  0  0  0  0  0  0  0  0  0  0
  -20.3235   35.4128  -17.9782 N   0  0  0  0  0  0  0  0  0  0  0  0
  -22.3579   33.4743  -15.9380 N   0  0  0  0  0  0  0  0  0  0  0  0
  -21.3069   34.8451  -17.2594 C   0  0  0  0  0  0  0  0  0  0  0  0
  -23.2059   34.4521  -16.3807 C   0  0  0  0  0  0  0  0  0  0  0  0
  -22.5979   35.2970  -17.1827 N   0  0  0  0  0  0  0  0  0  0  0  0
  -18.3272   35.1626  -18.4218 H   0  0  0  0  0  0  0  0  0  0  0  0
  -18.7320   31.5211  -15.6584 H   0  0  0  0  0  0  0  0  0  0  0  0
  -20.4111   31.5835  -15.1784 H   0  0  0  0  0  0  0  0  0  0  0  0
  -22.5970   32.7172  -15.3149 H   0  0  0  0  0  0  0  0  0  0  0  0
  -24.2467   34.4963  -16.0869 H   0  0  0  0  0  0  0  0  0  0  0  0
  1  2  2  0  0  0  0
  1  3  1  0  0  0  0
  2  4  1  0  0  0  0
  2  5  1  0  0  0  0
  3  6  2  0  0  0  0
  3 11  1  0  0  0  0
  4 12  1  0  0  0  0
  4 13  1  0  0  0  0
  5  7  1  0  0  0  0
  5  8  2  0  0  0  0
  6  8  1  0  0  0  0
  7  9  1  0  0  0  0
  7 14  1  0  0  0  0
  8 10  1  0  0  0  0
  9 10  2  0  0  0  0
  9 15  1  0  0  0  0
M  END
>  <Column 1>
Nc1ncnc2nc[nH]c12 ZINC000000000882

>  <Total Molweight>
135.13

>  <cLogP>
-0.347

>  <cLogS>
-2.269

>  <H-Acceptors>
5

>  <H-Donors>
2

>  <Total Surface Area>
102.23

>  <MMFF94 Energy>
-83.259

> <Gold.Version>
5.8.1

> <Gold.Id.Protein>
ID|2FQT|mol2

> <Gold.PLP.Fitness>
33.2289

> <Gold.PLP.PLP>
-24.2791

> <Gold.PLP.part.hbond>
-4.8466

> <Gold.PLP.part.metal>
0.0000

> <Gold.PLP.part.buried>
-6.1274

> <Gold.PLP.part.nonpolar>
-14.3926

> <Gold.PLP.part.repulsive>
0.2091

> <Gold.PLP.ligand.clash>
0.0000

> <Gold.PLP.ligand.torsion>
0.0000

> <Gold.PLP.Chemscore.Hbond>
2.9833

> <Gold.PLP.Chemscore.CHOScore>
0.0000

> <Gold.PLP.Chemscore.Metal>
0.0000

> <Gold.Chemscore.Hbonds>
donor molecule, donor type, donor heavy atom, donor atom, acceptor molecule, acceptor atom, score
      L1  H     4    12       P1   606  0.99
      P1  H  1223  2649       L1     6  0.99
      P1  H  1239  3336       L1     6  1.00

> <Gold.PLP.Chemscore.Internal.Correction>
0.0000

> <Gold.Protein.RotatedTorsions>
[ 3412  950  949  948 ] final  -21.96 input   60.00 | X-H torsion
[ 3476 1244 1243 1240 ] final -179.08 input   60.00 | X-H torsion
[ 2649 1223 1224 1225 ] final  -15.26 input   60.00 | X-H torsion
[ 4380 1912 1911 1909 ] final -101.02 input   60.00 | X-H torsion
[ 3084  621  620  617 ] final   70.42 input   60.00 | X-H torsion

> <Gold.Protein.ActiveResidues>
 HIS54   GLU57   HIS58   ALA61   PHE62   ILE64   ARG65   ASP75   ILE76   ILE77  
 ASP78   ILE79   SER80   PRO81   ILE118  PRO119  ALA120  ALA121  ASN122  LYS124 
 GLN125  CYS126  GLY127  CO701   VAL4    GLU5    SER6    PHE7    GLU8    LEU9   
 HIS11   ARG20   HIS21   CYS22   GLY23   VAL24   HIS25   LYS35   ARG39   MET82  
 GLY83   CYS84   TYR89  

> <Gold.Protein.RotatedAtoms>
  -20.6150   37.4400  -17.4927 H   0  0  0  0  0  0  0  0  0  0  0  0  # atno 2649 bound_to 1223
  -20.4349   38.9114  -16.7513 H   0  0  0  0  0  0  0  0  0  0  0  0  # atno 2650 bound_to 1223
  -18.3527   28.6146  -12.9038 H   0  0  0  0  0  0  0  0  0  0  0  0  # atno 3084 bound_to 621 
  -28.9147   38.5020  -28.0512 H   0  0  0  0  0  0  0  0  0  0  0  0  # atno 3412 bound_to 950 
  -27.7478   37.6615  -28.8753 H   0  0  0  0  0  0  0  0  0  0  0  0  # atno 3413 bound_to 950 
  -28.1680   39.1893  -29.3616 H   0  0  0  0  0  0  0  0  0  0  0  0  # atno 3414 bound_to 950 
  -23.6402   31.6421  -19.6969 H   0  0  0  0  0  0  0  0  0  0  0  0  # atno 3476 bound_to 1244
  -20.5568   30.7616  -20.4336 H   0  0  0  0  0  0  0  0  0  0  0  0  # atno 4380 bound_to 1912
  -23.0057   31.7863  -21.1884 LP  0  0  0  0  0  0  0  0  0  0  0  0  # atno 4866 bound_to 1244
  -24.3474   32.6247  -20.7842 LP  0  0  0  0  0  0  0  0  0  0  0  0  # atno 4867 bound_to 1244
  -21.5596   37.8412  -16.2067 LP  0  0  0  0  0  0  0  0  0  0  0  0  # atno 4874 bound_to 1223
  -19.7696   31.9056  -19.5855 LP  0  0  0  0  0  0  0  0  0  0  0  0  # atno 4875 bound_to 1912
  -21.1082   31.2033  -18.9677 LP  0  0  0  0  0  0  0  0  0  0  0  0  # atno 4876 bound_to 1912
  -19.7651   28.2772  -13.6383 LP  0  0  0  0  0  0  0  0  0  0  0  0  # atno 4881 bound_to 621 
  -18.4676   27.3147  -13.8760 LP  0  0  0  0  0  0  0  0  0  0  0  0  # atno 4882 bound_to 621 

$$$$
Compound 7|Decoys_protonated|sdf|7|dock4
  -GOLD-   6122416153D 1   1.00000     0.00000

 33 33  0  0  0  0  0  0  0  0  1 V2000
  -19.8735   33.6962  -17.9597 N   0  0  0  0  0  0  0  0  0  0  0  0
  -18.6341   34.1659  -17.8945 C   0  0  0  0  0  0  0  0  0  0  0  0
  -20.5745   33.6770  -16.8332 C   0  0  0  0  0  0  0  0  0  0  0  0
  -18.0893   34.6033  -16.7664 N   0  0  0  0  0  0  0  0  0  0  0  0
  -17.8770   34.2018  -19.0531 N   0  0  0  0  0  0  0  0  0  0  0  0
  -20.0854   34.1005  -15.6745 N   0  0  0  0  0  0  0  0  0  0  0  0
  -21.8720   33.1954  -16.8680 N   0  0  0  0  0  0  0  0  0  0  0  0
  -18.8406   34.5602  -15.6734 C   0  0  0  0  0  0  0  0  0  0  0  0
  -16.5609   34.7980  -18.9951 C   0  0  0  0  0  0  0  0  0  0  0  0
  -18.2222   33.2985  -20.1280 C   0  0  0  0  0  0  0  0  0  0  0  0
  -22.0920   31.7928  -16.5941 C   0  0  0  0  0  0  0  0  0  0  0  0
  -22.9590   34.1414  -16.7491 C   0  0  0  0  0  0  0  0  0  0  0  0
  -18.3008   35.0093  -14.4796 N   0  0  0  0  0  0  0  0  0  0  0  0
  -17.3491   36.0974  -14.5257 C   0  0  0  0  0  0  0  0  0  0  0  0
  -19.0124   34.7178  -13.2547 C   0  0  0  0  0  0  0  0  0  0  0  0
  -16.6007   35.8253  -18.6153 H   0  0  0  0  0  0  0  0  0  0  0  0
  -15.8921   34.2085  -18.3582 H   0  0  0  0  0  0  0  0  0  0  0  0
  -16.1074   34.8508  -19.9910 H   0  0  0  0  0  0  0  0  0  0  0  0
  -19.2689   33.4151  -20.4314 H   0  0  0  0  0  0  0  0  0  0  0  0
  -18.0507   32.2569  -19.8341 H   0  0  0  0  0  0  0  0  0  0  0  0
  -17.6154   33.4950  -21.0187 H   0  0  0  0  0  0  0  0  0  0  0  0
  -21.5008   31.1548  -17.2609 H   0  0  0  0  0  0  0  0  0  0  0  0
  -21.8395   31.5527  -15.5552 H   0  0  0  0  0  0  0  0  0  0  0  0
  -23.1415   31.5201  -16.7507 H   0  0  0  0  0  0  0  0  0  0  0  0
  -22.8958   34.9253  -17.5124 H   0  0  0  0  0  0  0  0  0  0  0  0
  -22.9642   34.6090  -15.7581 H   0  0  0  0  0  0  0  0  0  0  0  0
  -23.9278   33.6488  -16.8872 H   0  0  0  0  0  0  0  0  0  0  0  0
  -16.5050   35.8667  -15.1857 H   0  0  0  0  0  0  0  0  0  0  0  0
  -17.8275   37.0215  -14.8688 H   0  0  0  0  0  0  0  0  0  0  0  0
  -16.9255   36.2921  -13.5344 H   0  0  0  0  0  0  0  0  0  0  0  0
  -19.1869   33.6423  -13.1362 H   0  0  0  0  0  0  0  0  0  0  0  0
  -19.9752   35.2401  -13.2276 H   0  0  0  0  0  0  0  0  0  0  0  0
  -18.4370   35.0384  -12.3792 H   0  0  0  0  0  0  0  0  0  0  0  0
  1  2  2  0  0  0  0
  1  3  1  0  0  0  0
  2  4  1  0  0  0  0
  2  5  1  0  0  0  0
  3  6  2  0  0  0  0
  3  7  1  0  0  0  0
  4  8  2  0  0  0  0
  5  9  1  0  0  0  0
  5 10  1  0  0  0  0
  6  8  1  0  0  0  0
  7 11  1  0  0  0  0
  7 12  1  0  0  0  0
  8 13  1  0  0  0  0
  9 16  1  0  0  0  0
  9 17  1  0  0  0  0
  9 18  1  0  0  0  0
 10 19  1  0  0  0  0
 10 20  1  0  0  0  0
 10 21  1  0  0  0  0
 11 22  1  0  0  0  0
 11 23  1  0  0  0  0
 11 24  1  0  0  0  0
 12 25  1  0  0  0  0
 12 26  1  0  0  0  0
 12 27  1  0  0  0  0
 13 14  1  0  0  0  0
 13 15  1  0  0  0  0
 14 28  1  0  0  0  0
 14 29  1  0  0  0  0
 14 30  1  0  0  0  0
 15 31  1  0  0  0  0
 15 32  1  0  0  0  0
 15 33  1  0  0  0  0
M  END
>  <Column 1>
CN(C)c1nc(N(C)C)nc(N(C)C)n1 ZINC000000000905

>  <Total Molweight>
210.284

>  <cLogP>
0.7704

>  <cLogS>
-1.91

>  <H-Acceptors>
6

>  <H-Donors>
0

>  <Total Surface Area>
174

>  <MMFF94 Energy>
-240.97

> <Gold.Version>
5.8.1

> <Gold.Id.Protein>
ID|2FQT|mol2

> <Gold.PLP.Fitness>
38.3956

> <Gold.PLP.PLP>
-36.6932

> <Gold.PLP.part.hbond>
-2.0000

> <Gold.PLP.part.metal>
0.0000

> <Gold.PLP.part.buried>
-0.6032

> <Gold.PLP.part.nonpolar>
-34.2806

> <Gold.PLP.part.repulsive>
0.1051

> <Gold.PLP.ligand.clash>
0.0000

> <Gold.PLP.ligand.torsion>
1.8062

> <Gold.PLP.Chemscore.Hbond>
1.6816

> <Gold.PLP.Chemscore.CHOScore>
0.0000

> <Gold.PLP.Chemscore.Metal>
0.0000

> <Gold.Chemscore.Hbonds>
donor molecule, donor type, donor heavy atom, donor atom, acceptor molecule, acceptor atom, score
      P1  H  1912  4380       L1     1  0.99
      P1  H  1466  3954       L1     4  0.69

> <Gold.PLP.Chemscore.Internal.Correction>
0.2701

> <Gold.Protein.RotatedTorsions>
[ 3412  950  949  948 ] final  134.64 input   60.00 | X-H torsion
[ 3476 1244 1243 1240 ] final -101.46 input   60.00 | X-H torsion
[ 2649 1223 1224 1225 ] final   98.80 input   60.00 | X-H torsion
[ 4380 1912 1911 1909 ] final   94.30 input   60.00 | X-H torsion
[ 3084  621  620  617 ] final -109.04 input   60.00 | X-H torsion

> <Gold.Protein.ActiveResidues>
 HIS54   GLU57   HIS58   ALA61   PHE62   ILE64   ARG65   ASP75   ILE76   ILE77  
 ASP78   ILE79   SER80   PRO81   ILE118  PRO119  ALA120  ALA121  ASN122  LYS124 
 GLN125  CYS126  GLY127  CO701   VAL4    GLU5    SER6    PHE7    GLU8    LEU9   
 HIS11   ARG20   HIS21   CYS22   GLY23   VAL24   HIS25   LYS35   ARG39   MET82  
 GLY83   CYS84   TYR89  

> <Gold.Protein.RotatedAtoms>
  -20.3804   38.8832  -16.8291 H   0  0  0  0  0  0  0  0  0  0  0  0  # atno 2649 bound_to 1223
  -21.5520   37.9251  -16.1535 H   0  0  0  0  0  0  0  0  0  0  0  0  # atno 2650 bound_to 1223
  -19.3764   27.5292  -14.0352 H   0  0  0  0  0  0  0  0  0  0  0  0  # atno 3084 bound_to 621 
  -27.5951   38.0537  -29.3041 H   0  0  0  0  0  0  0  0  0  0  0  0  # atno 3412 bound_to 950 
  -28.5911   39.3331  -28.9599 H   0  0  0  0  0  0  0  0  0  0  0  0  # atno 3413 bound_to 950 
  -28.6444   37.9661  -28.0241 H   0  0  0  0  0  0  0  0  0  0  0  0  # atno 3414 bound_to 950 
  -24.4098   32.4069  -20.1439 H   0  0  0  0  0  0  0  0  0  0  0  0  # atno 3476 bound_to 1244
  -20.1981   31.9017  -19.0142 H   0  0  0  0  0  0  0  0  0  0  0  0  # atno 4380 bound_to 1912
  -23.1253   31.4102  -20.0745 LP  0  0  0  0  0  0  0  0  0  0  0  0  # atno 4866 bound_to 1244
  -23.4527   32.2305  -21.4480 LP  0  0  0  0  0  0  0  0  0  0  0  0  # atno 4867 bound_to 1244
  -20.6902   37.3911  -17.4493 LP  0  0  0  0  0  0  0  0  0  0  0  0  # atno 4874 bound_to 1223
  -21.2467   30.7630  -19.5159 LP  0  0  0  0  0  0  0  0  0  0  0  0  # atno 4875 bound_to 1912
  -19.9923   31.1977  -20.4668 LP  0  0  0  0  0  0  0  0  0  0  0  0  # atno 4876 bound_to 1912
  -17.9564   27.8568  -13.3110 LP  0  0  0  0  0  0  0  0  0  0  0  0  # atno 4881 bound_to 621 
  -19.2455   28.8283  -13.0639 LP  0  0  0  0  0  0  0  0  0  0  0  0  # atno 4882 bound_to 621 

$$$$
Compound 8|Decoys_protonated|sdf|8|dock2
  -GOLD-   6122416153D 1   1.00000     0.00000

 18 18  0  0  0  0  0  0  0  0  1 V2000
  -23.5442   29.9495  -17.1606 N   0  0  0  0  0  0  0  0  0  0  0  0
  -24.3292   31.0270  -16.9136 C   0  0  0  0  0  0  0  0  0  0  0  0
  -24.0448   28.9789  -17.9615 C   0  0  0  0  0  0  0  0  0  0  0  0
  -23.8336   32.0326  -16.0999 N   0  0  0  0  0  0  0  0  0  0  0  0
  -25.6005   31.0684  -17.5033 C   0  0  0  0  0  0  0  0  0  0  0  0
  -25.3036   29.0511  -18.5226 C   0  0  0  0  0  0  0  0  0  0  0  0
  -24.7046   32.9606  -15.4070 C   0  0  0  0  0  0  0  0  0  0  0  0
  -22.4335   31.9526  -15.7181 C   0  0  0  0  0  0  0  0  0  0  0  0
  -26.1184   30.0998  -18.3082 N   0  0  0  0  0  0  0  0  0  0  0  0
  -23.3928   28.1318  -18.1394 H   0  0  0  0  0  0  0  0  0  0  0  0
  -26.2689   31.9068  -17.3487 H   0  0  0  0  0  0  0  0  0  0  0  0
  -25.6891   28.2653  -19.1610 H   0  0  0  0  0  0  0  0  0  0  0  0
  -25.3069   33.5393  -16.1158 H   0  0  0  0  0  0  0  0  0  0  0  0
  -24.1340   33.6852  -14.8161 H   0  0  0  0  0  0  0  0  0  0  0  0
  -25.3711   32.4298  -14.7188 H   0  0  0  0  0  0  0  0  0  0  0  0
  -21.7822   31.8854  -16.5973 H   0  0  0  0  0  0  0  0  0  0  0  0
  -22.2547   31.0860  -15.0718 H   0  0  0  0  0  0  0  0  0  0  0  0
  -22.1185   32.8448  -15.1660 H   0  0  0  0  0  0  0  0  0  0  0  0
  1  2  2  0  0  0  0
  1  3  1  0  0  0  0
  2  4  1  0  0  0  0
  2  5  1  0  0  0  0
  3  6  2  0  0  0  0
  3 10  1  0  0  0  0
  4  7  1  0  0  0  0
  4  8  1  0  0  0  0
  5  9  2  0  0  0  0
  5 11  1  0  0  0  0
  6  9  1  0  0  0  0
  6 12  1  0  0  0  0
  7 13  1  0  0  0  0
  7 14  1  0  0  0  0
  7 15  1  0  0  0  0
  8 16  1  0  0  0  0
  8 17  1  0  0  0  0
  8 18  1  0  0  0  0
M  END
>  <Column 1>
CN(C)c1cnccn1 ZINC000000000936

>  <Total Molweight>
123.158

>  <cLogP>
-0.0944

>  <cLogS>
-0.587

>  <H-Acceptors>
3

>  <H-Donors>
0

>  <Total Surface Area>
105.6

>  <MMFF94 Energy>
45.228

> <Gold.Version>
5.8.1

> <Gold.Id.Protein>
ID|2FQT|mol2

> <Gold.PLP.Fitness>
38.3933

> <Gold.PLP.PLP>
-31.9888

> <Gold.PLP.part.hbond>
0.0000

> <Gold.PLP.part.metal>
-1.0000

> <Gold.PLP.part.buried>
-5.0306

> <Gold.PLP.part.nonpolar>
-26.2127

> <Gold.PLP.part.repulsive>
0.2207

> <Gold.PLP.ligand.clash>
0.0000

> <Gold.PLP.ligand.torsion>
0.1234

> <Gold.PLP.Chemscore.Hbond>
0.0000

> <Gold.PLP.Chemscore.CHOScore>
0.2645

> <Gold.PLP.Chemscore.Metal>
0.9693

> <Gold.Chemscore.Hbonds>
donor molecule, donor type, donor heavy atom, donor atom, acceptor molecule, acceptor atom, score
      L1  C     5    11       P1   437  0.26
      P1  M  1222  1222       L1     9  0.97

> <Gold.PLP.Chemscore.Internal.Correction>
0.0418

> <Gold.Protein.RotatedTorsions>
[ 3412  950  949  948 ] final  -78.34 input   60.00 | X-H torsion
[ 3476 1244 1243 1240 ] final   92.16 input   60.00 | X-H torsion
[ 2649 1223 1224 1225 ] final   47.68 input   60.00 | X-H torsion
[ 4380 1912 1911 1909 ] final -121.95 input   60.00 | X-H torsion
[ 3084  621  620  617 ] final  -75.46 input   60.00 | X-H torsion

> <Gold.Protein.ActiveResidues>
 HIS54   GLU57   HIS58   ALA61   PHE62   ILE64   ARG65   ASP75   ILE76   ILE77  
 ASP78   ILE79   SER80   PRO81   ILE118  PRO119  ALA120  ALA121  ASN122  LYS124 
 GLN125  CYS126  GLY127  CO701   VAL4    GLU5    SER6    PHE7    GLU8    LEU9   
 HIS11   ARG20   HIS21   CYS22   GLY23   VAL24   HIS25   LYS35   ARG39   MET82  
 GLY83   CYS84   TYR89  

> <Gold.Protein.RotatedAtoms>
  -20.1734   38.3323  -17.4083 H   0  0  0  0  0  0  0  0  0  0  0  0  # atno 2649 bound_to 1223
  -21.1624   38.6522  -16.1173 H   0  0  0  0  0  0  0  0  0  0  0  0  # atno 2650 bound_to 1223
  -19.6991   27.9273  -13.8625 H   0  0  0  0  0  0  0  0  0  0  0  0  # atno 3084 bound_to 621 
  -28.8320   39.2138  -28.6027 H   0  0  0  0  0  0  0  0  0  0  0  0  # atno 3412 bound_to 950 
  -28.3431   37.6834  -28.1949 H   0  0  0  0  0  0  0  0  0  0  0  0  # atno 3413 bound_to 950 
  -27.6555   38.4556  -29.4904 H   0  0  0  0  0  0  0  0  0  0  0  0  # atno 3414 bound_to 950 
  -22.8940   31.5293  -20.7672 H   0  0  0  0  0  0  0  0  0  0  0  0  # atno 3476 bound_to 1244
  -20.2775   30.9401  -20.5093 H   0  0  0  0  0  0  0  0  0  0  0  0  # atno 4380 bound_to 1912
  -24.0582   32.5810  -21.1990 LP  0  0  0  0  0  0  0  0  0  0  0  0  # atno 4866 bound_to 1244
  -24.0465   31.9435  -19.6957 LP  0  0  0  0  0  0  0  0  0  0  0  0  # atno 4867 bound_to 1244
  -21.2779   37.2175  -16.9143 LP  0  0  0  0  0  0  0  0  0  0  0  0  # atno 4874 bound_to 1223
  -19.9297   31.9565  -19.2871 LP  0  0  0  0  0  0  0  0  0  0  0  0  # atno 4875 bound_to 1912
  -21.2294   30.9727  -19.1899 LP  0  0  0  0  0  0  0  0  0  0  0  0  # atno 4876 bound_to 1912
  -18.1500   27.4768  -13.6498 LP  0  0  0  0  0  0  0  0  0  0  0  0  # atno 4881 bound_to 621 
  -18.7268   28.8072  -12.8989 LP  0  0  0  0  0  0  0  0  0  0  0  0  # atno 4882 bound_to 621 

$$$$
Compound 9|Decoys_protonated|sdf|9|dock8
  -GOLD-   6122416153D 1   1.00000     0.00000

 34 36  0  0  0  0  0  0  0  0  1 V2000
  -19.2037   32.9985  -17.6133 N   0  0  0  0  0  0  0  0  0  0  0  0
  -18.4534   33.9767  -18.0274 C   0  0  0  0  0  0  0  0  0  0  0  0
  -19.6197   33.0473  -16.3099 C   0  0  0  0  0  0  0  0  0  0  0  0
  -18.0363   35.1136  -17.1799 C   0  0  0  0  0  0  0  0  0  0  0  0
  -17.9757   33.9578  -19.4569 C   0  0  0  0  0  0  0  0  0  0  0  0
  -20.3766   32.1842  -15.6671 N   0  0  0  0  0  0  0  0  0  0  0  0
  -19.2638   34.1009  -15.4352 N   0  0  0  0  0  0  0  0  0  0  0  0
  -18.4512   35.1489  -15.9041 C   0  0  0  0  0  0  0  0  0  0  0  0
  -17.1892   36.2745  -17.5445 C   0  0  0  0  0  0  0  0  0  0  0  0
  -20.4729   32.7142  -14.4233 C   0  0  0  0  0  0  0  0  0  0  0  0
  -19.8291   33.8596  -14.2223 N   0  0  0  0  0  0  0  0  0  0  0  0
  -17.9530   36.3017  -15.2645 N   0  0  0  0  0  0  0  0  0  0  0  0
  -17.1403   37.0777  -16.2281 C   0  0  0  0  0  0  0  0  0  0  0  0
  -18.1308   36.7821  -13.8729 C   0  0  0  0  0  0  0  0  0  0  0  0
  -17.2859   38.0426  -13.6293 C   0  0  0  0  0  0  0  0  0  0  0  0
  -17.8048   35.6613  -12.8734 C   0  0  0  0  0  0  0  0  0  0  0  0
  -19.5996   37.1919  -13.5904 C   0  0  0  0  0  0  0  0  0  0  0  0
  -18.3509   33.0701  -19.9745 H   0  0  0  0  0  0  0  0  0  0  0  0
  -16.8824   33.9413  -19.4801 H   0  0  0  0  0  0  0  0  0  0  0  0
  -18.3383   34.8477  -19.9787 H   0  0  0  0  0  0  0  0  0  0  0  0
  -17.6371   36.8679  -18.3476 H   0  0  0  0  0  0  0  0  0  0  0  0
  -16.1851   35.9646  -17.8504 H   0  0  0  0  0  0  0  0  0  0  0  0
  -21.0371   32.2455  -13.6268 H   0  0  0  0  0  0  0  0  0  0  0  0
  -16.1033   37.1687  -15.8877 H   0  0  0  0  0  0  0  0  0  0  0  0
  -17.5618   38.0760  -16.3871 H   0  0  0  0  0  0  0  0  0  0  0  0
  -17.4576   38.4444  -12.6239 H   0  0  0  0  0  0  0  0  0  0  0  0
  -16.2145   37.8689  -13.7190 H   0  0  0  0  0  0  0  0  0  0  0  0
  -17.5423   38.8280  -14.3504 H   0  0  0  0  0  0  0  0  0  0  0  0
  -18.4248   34.7774  -13.0645 H   0  0  0  0  0  0  0  0  0  0  0  0
  -17.9937   35.9844  -11.8430 H   0  0  0  0  0  0  0  0  0  0  0  0
  -16.7668   35.3340  -12.9143 H   0  0  0  0  0  0  0  0  0  0  0  0
  -19.7178   37.5453  -12.5587 H   0  0  0  0  0  0  0  0  0  0  0  0
  -20.2893   36.3507  -13.7200 H   0  0  0  0  0  0  0  0  0  0  0  0
  -19.9287   38.0061  -14.2455 H   0  0  0  0  0  0  0  0  0  0  0  0
  1  2  2  0  0  0  0
  1  3  1  0  0  0  0
  2  4  1  0  0  0  0
  2  5  1  0  0  0  0
  3  6  2  0  0  0  0
  3  7  1  0  0  0  0
  4  8  2  0  0  0  0
  4  9  1  0  0  0  0
  5 18  1  0  0  0  0
  5 19  1  0  0  0  0
  5 20  1  0  0  0  0
  6 10  1  0  0  0  0
  7 11  1  0  0  0  0
  7  8  1  0  0  0  0
  8 12  1  0  0  0  0
  9 13  1  0  0  0  0
  9 21  1  0  0  0  0
  9 22  1  0  0  0  0
 10 11  2  0  0  0  0
 10 23  1  0  0  0  0
 12 14  1  0  0  0  0
 12 13  1  0  0  0  0
 13 24  1  0  0  0  0
 13 25  1  0  0  0  0
 14 15  1  0  0  0  0
 14 16  1  0  0  0  0
 14 17  1  0  0  0  0
 15 26  1  0  0  0  0
 15 27  1  0  0  0  0
 15 28  1  0  0  0  0
 16 29  1  0  0  0  0
 16 30  1  0  0  0  0
 16 31  1  0  0  0  0
 17 32  1  0  0  0  0
 17 33  1  0  0  0  0
 17 34  1  0  0  0  0
M  END
>  <Column 1>
Cc1nc2ncnn2c2c1CCN2C(C)(C)C ZINC000000001071

>  <Total Molweight>
231.302

>  <cLogP>
1.1886

>  <cLogS>
-1.397

>  <H-Acceptors>
5

>  <H-Donors>
0

>  <Total Surface Area>
178.56

>  <MMFF94 Energy>
113.62

> <Gold.Version>
5.8.1

> <Gold.Id.Protein>
ID|2FQT|mol2

> <Gold.PLP.Fitness>
41.5550

> <Gold.PLP.PLP>
-35.8697

> <Gold.PLP.part.hbond>
-1.0000

> <Gold.PLP.part.metal>
0.0000

> <Gold.PLP.part.buried>
-4.6494

> <Gold.PLP.part.nonpolar>
-30.5369

> <Gold.PLP.part.repulsive>
0.2488

> <Gold.PLP.ligand.clash>
0.0000

> <Gold.PLP.ligand.torsion>
0.1566

> <Gold.PLP.Chemscore.Hbond>
0.9920

> <Gold.PLP.Chemscore.CHOScore>
1.0000

> <Gold.PLP.Chemscore.Metal>
0.0000

> <Gold.Chemscore.Hbonds>
donor molecule, donor type, donor heavy atom, donor atom, acceptor molecule, acceptor atom, score
      P1  H  1912  4380       L1     1  0.99
      L1  C    10    23       P1   611  1.00

> <Gold.PLP.Chemscore.Internal.Correction>
0.0226

> <Gold.Protein.RotatedTorsions>
[ 3412  950  949  948 ] final  -54.62 input   60.00 | X-H torsion
[ 3476 1244 1243 1240 ] final  -32.36 input   60.00 | X-H torsion
[ 2649 1223 1224 1225 ] final  -78.05 input   60.00 | X-H torsion
[ 4380 1912 1911 1909 ] final  102.73 input   60.00 | X-H torsion
[ 3084  621  620  617 ] final -109.94 input   60.00 | X-H torsion

> <Gold.Protein.ActiveResidues>
 HIS54   GLU57   HIS58   ALA61   PHE62   ILE64   ARG65   ASP75   ILE76   ILE77  
 ASP78   ILE79   SER80   PRO81   ILE118  PRO119  ALA120  ALA121  ASN122  LYS124 
 GLN125  CYS126  GLY127  CO701   VAL4    GLU5    SER6    PHE7    GLU8    LEU9   
 HIS11   ARG20   HIS21   CYS22   GLY23   VAL24   HIS25   LYS35   ARG39   MET82  
 GLY83   CYS84   TYR89  

> <Gold.Protein.RotatedAtoms>
  -21.3355   37.2256  -16.8378 H   0  0  0  0  0  0  0  0  0  0  0  0  # atno 2649 bound_to 1223
  -20.1837   38.2474  -17.4512 H   0  0  0  0  0  0  0  0  0  0  0  0  # atno 2650 bound_to 1223
  -19.3647   27.5205  -14.0373 H   0  0  0  0  0  0  0  0  0  0  0  0  # atno 3084 bound_to 621 
  -28.9448   38.9700  -28.3152 H   0  0  0  0  0  0  0  0  0  0  0  0  # atno 3412 bound_to 950 
  -28.0642   37.5721  -28.4492 H   0  0  0  0  0  0  0  0  0  0  0  0  # atno 3413 bound_to 950 
  -27.8216   38.8107  -29.5236 H   0  0  0  0  0  0  0  0  0  0  0  0  # atno 3414 bound_to 950 
  -24.1051   32.5960  -21.1433 H   0  0  0  0  0  0  0  0  0  0  0  0  # atno 3476 bound_to 1244
  -20.0958   31.9316  -19.1011 H   0  0  0  0  0  0  0  0  0  0  0  0  # atno 4380 bound_to 1912
  -23.9922   31.8957  -19.6788 LP  0  0  0  0  0  0  0  0  0  0  0  0  # atno 4866 bound_to 1244
  -22.8928   31.5546  -20.8371 LP  0  0  0  0  0  0  0  0  0  0  0  0  # atno 4867 bound_to 1244
  -21.0972   38.7066  -16.1622 LP  0  0  0  0  0  0  0  0  0  0  0  0  # atno 4874 bound_to 1223
  -21.2558   30.8287  -19.3943 LP  0  0  0  0  0  0  0  0  0  0  0  0  # atno 4875 bound_to 1912
  -20.0863   31.1019  -20.5009 LP  0  0  0  0  0  0  0  0  0  0  0  0  # atno 4876 bound_to 1912
  -17.9553   27.8686  -13.3021 LP  0  0  0  0  0  0  0  0  0  0  0  0  # atno 4881 bound_to 621 
  -19.2584   28.8252  -13.0706 LP  0  0  0  0  0  0  0  0  0  0  0  0  # atno 4882 bound_to 621 

$$$$
Compound 10|Decoys_protonated|sdf|10|dock6
  -GOLD-   6122416153D 1   1.00000     0.00000

 20 21  0  0  0  0  0  0  0  0  1 V2000
  -19.0331   33.6945  -16.9119 N   0  0  0  0  0  0  0  0  0  0  0  0
  -19.4633   34.8101  -17.5976 C   0  0  0  0  0  0  0  0  0  0  0  0
  -19.9178   32.9666  -16.2960 C   0  0  0  0  0  0  0  0  0  0  0  0
  -20.7049   35.2124  -17.6875 N   0  0  0  0  0  0  0  0  0  0  0  0
  -18.5074   35.5295  -18.2183 N   0  0  0  0  0  0  0  0  0  0  0  0
  -21.2617   33.3503  -16.3586 N   0  0  0  0  0  0  0  0  0  0  0  0
  -19.5851   31.8440  -15.5916 N   0  0  0  0  0  0  0  0  0  0  0  0
  -21.6390   34.4628  -17.0497 C   0  0  0  0  0  0  0  0  0  0  0  0
  -22.2758   32.6798  -15.7623 N   0  0  0  0  0  0  0  0  0  0  0  0
  -23.0036   34.5329  -16.8991 C   0  0  0  0  0  0  0  0  0  0  0  0
  -23.3505   33.4124  -16.0978 C   0  0  0  0  0  0  0  0  0  0  0  0
  -24.7004   33.0114  -15.6335 C   0  0  0  0  0  0  0  0  0  0  0  0
  -17.5462   35.2345  -18.1597 H   0  0  0  0  0  0  0  0  0  0  0  0
  -18.7700   36.3546  -18.7337 H   0  0  0  0  0  0  0  0  0  0  0  0
  -18.6228   31.5474  -15.5321 H   0  0  0  0  0  0  0  0  0  0  0  0
  -20.3174   31.3136  -15.1302 H   0  0  0  0  0  0  0  0  0  0  0  0
  -23.6563   35.2884  -17.3112 H   0  0  0  0  0  0  0  0  0  0  0  0
  -25.4642   33.7094  -15.9910 H   0  0  0  0  0  0  0  0  0  0  0  0
  -24.9531   32.0131  -16.0051 H   0  0  0  0  0  0  0  0  0  0  0  0
  -24.7409   32.9955  -14.5396 H   0  0  0  0  0  0  0  0  0  0  0  0
  1  2  1  0  0  0  0
  1  3  2  0  0  0  0
  2  4  2  0  0  0  0
  2  5  1  0  0  0  0
  3  6  1  0  0  0  0
  3  7  1  0  0  0  0
  4  8  1  0  0  0  0
  5 13  1  0  0  0  0
  5 14  1  0  0  0  0
  6  9  1  0  0  0  0
  6  8  1  0  0  0  0
  7 15  1  0  0  0  0
  7 16  1  0  0  0  0
  8 10  2  0  0  0  0
  9 11  2  0  0  0  0
 10 11  1  0  0  0  0
 10 17  1  0  0  0  0
 11 12  1  0  0  0  0
 12 18  1  0  0  0  0
 12 19  1  0  0  0  0
 12 20  1  0  0  0  0
M  END
>  <Column 1>
Cc1cc2nc(N)nc(N)n2n1 ZINC000000001242

>  <Total Molweight>
164.172

>  <cLogP>
-0.7791

>  <cLogS>
-2.877

>  <H-Acceptors>
6

>  <H-Donors>
2

>  <Total Surface Area>
124.09

>  <MMFF94 Energy>
-29.084

> <Gold.Version>
5.8.1

> <Gold.Id.Protein>
ID|2FQT|mol2

> <Gold.PLP.Fitness>
37.5677

> <Gold.PLP.PLP>
-28.5677

> <Gold.PLP.part.hbond>
-3.5366

> <Gold.PLP.part.metal>
0.0000

> <Gold.PLP.part.buried>
-4.0563

> <Gold.PLP.part.nonpolar>
-20.8064

> <Gold.PLP.part.repulsive>
0.3484

> <Gold.PLP.ligand.clash>
0.0000

> <Gold.PLP.ligand.torsion>
0.0000

> <Gold.PLP.Chemscore.Hbond>
3.0000

> <Gold.PLP.Chemscore.CHOScore>
0.0000

> <Gold.PLP.Chemscore.Metal>
0.0000

> <Gold.Chemscore.Hbonds>
donor molecule, donor type, donor heavy atom, donor atom, acceptor molecule, acceptor atom, score
      L1  H     7    15       P1   606  1.00
      P1  H  1223  2649       L1     4  1.00
      P1  H  1239  3336       L1     4  1.00

> <Gold.PLP.Chemscore.Internal.Correction>
0.0000

> <Gold.Protein.RotatedTorsions>
[ 3412  950  949  948 ] final  -57.93 input   60.00 | X-H torsion
[ 3476 1244 1243 1240 ] final   -5.89 input   60.00 | X-H torsion
[ 2649 1223 1224 1225 ] final  -47.28 input   60.00 | X-H torsion
[ 4380 1912 1911 1909 ] final   76.42 input   60.00 | X-H torsion
[ 3084  621  620  617 ] final  117.05 input   60.00 | X-H torsion

> <Gold.Protein.ActiveResidues>
 HIS54   GLU57   HIS58   ALA61   PHE62   ILE64   ARG65   ASP75   ILE76   ILE77  
 ASP78   ILE79   SER80   PRO81   ILE118  PRO119  ALA120  ALA121  ASN122  LYS124 
 GLN125  CYS126  GLY127  CO701   VAL4    GLU5    SER6    PHE7    GLU8    LEU9   
 HIS11   ARG20   HIS21   CYS22   GLY23   VAL24   HIS25   LYS35   ARG39   MET82  
 GLY83   CYS84   TYR89  

> <Gold.Protein.RotatedAtoms>
  -21.0005   37.2055  -17.2189 H   0  0  0  0  0  0  0  0  0  0  0  0  # atno 2649 bound_to 1223
  -20.2102   38.6611  -17.1580 H   0  0  0  0  0  0  0  0  0  0  0  0  # atno 2650 bound_to 1223
  -17.9712   28.0425  -13.1804 H   0  0  0  0  0  0  0  0  0  0  0  0  # atno 3084 bound_to 621 
  -28.9356   39.0104  -28.3518 H   0  0  0  0  0  0  0  0  0  0  0  0  # atno 3412 bound_to 950 
  -28.1020   37.5789  -28.4094 H   0  0  0  0  0  0  0  0  0  0  0  0  # atno 3413 bound_to 950 
  -27.7930   38.7634  -29.5268 H   0  0  0  0  0  0  0  0  0  0  0  0  # atno 3414 bound_to 950 
  -23.7779   32.4483  -21.3775 H   0  0  0  0  0  0  0  0  0  0  0  0  # atno 3476 bound_to 1244
  -20.4325   31.7955  -18.8782 H   0  0  0  0  0  0  0  0  0  0  0  0  # atno 4380 bound_to 1912
  -24.2709   32.1769  -19.8507 LP  0  0  0  0  0  0  0  0  0  0  0  0  # atno 4866 bound_to 1244
  -22.9435   31.4222  -20.4294 LP  0  0  0  0  0  0  0  0  0  0  0  0  # atno 4867 bound_to 1244
  -21.4012   38.3189  -16.0757 LP  0  0  0  0  0  0  0  0  0  0  0  0  # atno 4874 bound_to 1223
  -21.1732   30.6625  -19.7813 LP  0  0  0  0  0  0  0  0  0  0  0  0  # atno 4875 bound_to 1912
  -19.8298   31.4051  -20.3384 LP  0  0  0  0  0  0  0  0  0  0  0  0  # atno 4876 bound_to 1912
  -19.4316   28.7603  -13.1772 LP  0  0  0  0  0  0  0  0  0  0  0  0  # atno 4881 bound_to 621 
  -19.1853   27.4078  -14.0586 LP  0  0  0  0  0  0  0  0  0  0  0  0  # atno 4882 bound_to 621 

$$$$
Compound 11|Decoys_protonated|sdf|11|dock10
  -GOLD-   6122416153D 1   1.00000     0.00000

 42 44  0  0  0  0  0  0  0  0  1 V2000
  -16.7200   40.0105  -13.1757 O   0  0  0  0  0  0  0  0  0  0  0  0
  -17.1627   38.8680  -13.3276 C   0  0  0  0  0  0  0  0  0  0  0  0
  -16.8144   38.1006  -14.4589 N   0  0  0  0  0  0  0  0  0  0  0  0
  -18.0219   38.2799  -12.3994 N   0  0  0  0  0  0  0  0  0  0  0  0
  -17.2557   36.8026  -14.7297 C   0  0  0  0  0  0  0  0  0  0  0  0
  -15.9205   38.7311  -15.4103 C   0  0  0  0  0  0  0  0  0  0  0  0
  -18.4822   37.0050  -12.6225 C   0  0  0  0  0  0  0  0  0  0  0  0
  -18.4295   39.0015  -11.2078 C   0  0  0  0  0  0  0  0  0  0  0  0
  -16.9392   36.1532  -15.7216 O   0  0  0  0  0  0  0  0  0  0  0  0
  -18.1247   36.2938  -13.7264 C   0  0  0  0  0  0  0  0  0  0  0  0
  -19.3196   36.3019  -11.8154 N   0  0  0  0  0  0  0  0  0  0  0  0
  -18.7686   35.0888  -13.6043 N   0  0  0  0  0  0  0  0  0  0  0  0
  -19.4778   35.1459  -12.4309 C   0  0  0  0  0  0  0  0  0  0  0  0
  -18.6805   33.9948  -14.5658 C   0  0  0  0  0  0  0  0  0  0  0  0
  -20.0103   33.4279  -14.9879 C   0  0  0  0  0  0  0  0  0  0  0  0
  -20.3142   32.0816  -14.7789 C   0  0  0  0  0  0  0  0  0  0  0  0
  -20.9619   34.2285  -15.6224 C   0  0  0  0  0  0  0  0  0  0  0  0
  -21.5458   31.5553  -15.1952 C   0  0  0  0  0  0  0  0  0  0  0  0
  -22.1892   33.6882  -16.0332 C   0  0  0  0  0  0  0  0  0  0  0  0
  -22.5224   32.3376  -15.8349 C   0  0  0  0  0  0  0  0  0  0  0  0
  -23.7401   31.8085  -16.2468 N   0  0  0  0  0  0  0  0  0  0  0  0
  -23.8014   30.6006  -17.0600 C   0  0  0  0  0  0  0  0  0  0  0  0
  -25.0003   32.4457  -15.8862 C   0  0  0  0  0  0  0  0  0  0  0  0
  -14.9883   38.9957  -14.9006 H   0  0  0  0  0  0  0  0  0  0  0  0
  -16.3842   39.6530  -15.7762 H   0  0  0  0  0  0  0  0  0  0  0  0
  -15.6893   38.0871  -16.2622 H   0  0  0  0  0  0  0  0  0  0  0  0
  -18.1121   38.4394  -10.3237 H   0  0  0  0  0  0  0  0  0  0  0  0
  -19.5194   39.1022  -11.2066 H   0  0  0  0  0  0  0  0  0  0  0  0
  -17.9867   39.9998  -11.1642 H   0  0  0  0  0  0  0  0  0  0  0  0
  -20.0909   34.3306  -12.0656 H   0  0  0  0  0  0  0  0  0  0  0  0
  -18.1408   34.3775  -15.4403 H   0  0  0  0  0  0  0  0  0  0  0  0
  -18.0667   33.2109  -14.1064 H   0  0  0  0  0  0  0  0  0  0  0  0
  -19.5993   31.4206  -14.2933 H   0  0  0  0  0  0  0  0  0  0  0  0
  -20.7638   35.2819  -15.8103 H   0  0  0  0  0  0  0  0  0  0  0  0
  -21.7193   30.5005  -15.0026 H   0  0  0  0  0  0  0  0  0  0  0  0
  -22.8848   34.3651  -16.5209 H   0  0  0  0  0  0  0  0  0  0  0  0
  -23.2861   30.7474  -18.0155 H   0  0  0  0  0  0  0  0  0  0  0  0
  -24.8327   30.3175  -17.2969 H   0  0  0  0  0  0  0  0  0  0  0  0
  -23.3540   29.7516  -16.5316 H   0  0  0  0  0  0  0  0  0  0  0  0
  -25.1246   32.4765  -14.7981 H   0  0  0  0  0  0  0  0  0  0  0  0
  -25.8635   31.9039  -16.2876 H   0  0  0  0  0  0  0  0  0  0  0  0
  -25.0512   33.4638  -16.2874 H   0  0  0  0  0  0  0  0  0  0  0  0
  1  2  2  0  0  0  0
  2  3  1  0  0  0  0
  2  4  1  0  0  0  0
  3  5  1  0  0  0  0
  3  6  1  0  0  0  0
  4  7  1  0  0  0  0
  4  8  1  0  0  0  0
  5  9  2  0  0  0  0
  5 10  1  0  0  0  0
  6 24  1  0  0  0  0
  6 25  1  0  0  0  0
  6 26  1  0  0  0  0
  7 11  1  0  0  0  0
  7 10  2  0  0  0  0
  8 27  1  0  0  0  0
  8 28  1  0  0  0  0
  8 29  1  0  0  0  0
 10 12  1  0  0  0  0
 11 13  2  0  0  0  0
 12 14  1  0  0  0  0
 12 13  1  0  0  0  0
 13 30  1  0  0  0  0
 14 15  1  0  0  0  0
 14 31  1  0  0  0  0
 14 32  1  0  0  0  0
 15 16  2  0  0  0  0
 15 17  1  0  0  0  0
 16 18  1  0  0  0  0
 16 33  1  0  0  0  0
 17 19  2  0  0  0  0
 17 34  1  0  0  0  0
 18 20  2  0  0  0  0
 18 35  1  0  0  0  0
 19 20  1  0  0  0  0
 19 36  1  0  0  0  0
 20 21  1  0  0  0  0
 21 22  1  0  0  0  0
 21 23  1  0  0  0  0
 22 37  1  0  0  0  0
 22 38  1  0  0  0  0
 22 39  1  0  0  0  0
 23 40  1  0  0  0  0
 23 41  1  0  0  0  0
 23 42  1  0  0  0  0
M  END
>  <Column 1>
CN(C)c1ccc(Cn2cnc3c2c(=O)n(C)c(=O)n3C)cc1 ZINC000000001301

>  <Total Molweight>
313.36

>  <cLogP>
1.0755

>  <cLogS>
-1.97

>  <H-Acceptors>
7

>  <H-Donors>
0

>  <Total Surface Area>
236.68

>  <MMFF94 Energy>
-92.158

> <Gold.Version>
5.8.1

> <Gold.Id.Protein>
ID|2FQT|mol2

> <Gold.PLP.Fitness>
54.8881

> <Gold.PLP.PLP>
-56.9107

> <Gold.PLP.part.hbond>
0.0000

> <Gold.PLP.part.metal>
0.0000

> <Gold.PLP.part.buried>
-9.7102

> <Gold.PLP.part.nonpolar>
-48.0265

> <Gold.PLP.part.repulsive>
0.2520

> <Gold.PLP.ligand.clash>
0.0000

> <Gold.PLP.ligand.torsion>
1.0120

> <Gold.PLP.Chemscore.Hbond>
0.0000

> <Gold.PLP.Chemscore.CHOScore>
0.0000

> <Gold.PLP.Chemscore.Metal>
0.0000

> <Gold.PLP.Chemscore.Internal.Correction>
0.0014

> <Gold.Protein.RotatedTorsions>
[ 3412  950  949  948 ] final  -81.31 input   60.00 | X-H torsion
[ 3476 1244 1243 1240 ] final  150.89 input   60.00 | X-H torsion
[ 2649 1223 1224 1225 ] final  -77.76 input   60.00 | X-H torsion
[ 4380 1912 1911 1909 ] final -144.40 input   60.00 | X-H torsion
[ 3084  621  620  617 ] final -135.13 input   60.00 | X-H torsion

> <Gold.Protein.ActiveResidues>
 HIS54   GLU57   HIS58   ALA61   PHE62   ILE64   ARG65   ASP75   ILE76   ILE77  
 ASP78   ILE79   SER80   PRO81   ILE118  PRO119  ALA120  ALA121  ASN122  LYS124 
 GLN125  CYS126  GLY127  CO701   VAL4    GLU5    SER6    PHE7    GLU8    LEU9   
 HIS11   ARG20   HIS21   CYS22   GLY23   VAL24   HIS25   LYS35   ARG39   MET82  
 GLY83   CYS84   TYR89  

> <Gold.Protein.RotatedAtoms>
  -21.3329   37.2242  -16.8416 H   0  0  0  0  0  0  0  0  0  0  0  0  # atno 2649 bound_to 1223
  -20.1830   38.2517  -17.4492 H   0  0  0  0  0  0  0  0  0  0  0  0  # atno 2650 bound_to 1223
  -18.9988   27.3392  -14.0399 H   0  0  0  0  0  0  0  0  0  0  0  0  # atno 3084 bound_to 621 
  -28.8107   39.2359  -28.6416 H   0  0  0  0  0  0  0  0  0  0  0  0  # atno 3412 bound_to 950 
  -28.3782   37.7071  -28.1692 H   0  0  0  0  0  0  0  0  0  0  0  0  # atno 3413 bound_to 950 
  -27.6417   38.4098  -29.4773 H   0  0  0  0  0  0  0  0  0  0  0  0  # atno 3414 bound_to 950 
  -23.2584   31.4520  -19.9279 H   0  0  0  0  0  0  0  0  0  0  0  0  # atno 3476 bound_to 1244
  -20.0081   31.1818  -20.4665 H   0  0  0  0  0  0  0  0  0  0  0  0  # atno 4380 bound_to 1912
  -23.2982   32.1023  -21.4190 LP  0  0  0  0  0  0  0  0  0  0  0  0  # atno 4866 bound_to 1244
  -24.4395   32.5001  -20.3209 LP  0  0  0  0  0  0  0  0  0  0  0  0  # atno 4867 bound_to 1244
  -21.1005   38.7037  -16.1605 LP  0  0  0  0  0  0  0  0  0  0  0  0  # atno 4874 bound_to 1223
  -20.1811   31.9133  -19.0232 LP  0  0  0  0  0  0  0  0  0  0  0  0  # atno 4875 bound_to 1912
  -21.2492   30.7724  -19.4969 LP  0  0  0  0  0  0  0  0  0  0  0  0  # atno 4876 bound_to 1912
  -18.0145   28.2091  -13.0793 LP  0  0  0  0  0  0  0  0  0  0  0  0  # atno 4881 bound_to 621 
  -19.5676   28.6672  -13.2909 LP  0  0  0  0  0  0  0  0  0  0  0  0  # atno 4882 bound_to 621 

$$$$
Compound 12|Decoys_protonated|sdf|12|dock5
  -GOLD-   6122416153D 1   1.00000     0.00000

 34 35  0  0  0  0  0  0  0  0  1 V2000
  -19.7342   34.0117  -19.0074 O   0  0  0  0  0  0  0  0  0  0  0  0
  -18.8930   34.6223  -18.3469 C   0  0  0  0  0  0  0  0  0  0  0  0
  -17.5312   34.5370  -18.6084 N   0  0  0  0  0  0  0  0  0  0  0  0
  -19.3092   35.5030  -17.1914 C   0  0  0  0  0  0  0  0  0  0  0  0
  -16.5696   35.1876  -17.8871 N   0  0  0  0  0  0  0  0  0  0  0  0
  -17.0384   33.7170  -19.7015 C   0  0  0  0  0  0  0  0  0  0  0  0
  -20.6541   35.5986  -16.8244 O   0  0  0  0  0  0  0  0  0  0  0  0
  -18.3753   36.1084  -16.4310 C   0  0  0  0  0  0  0  0  0  0  0  0
  -16.9753   35.9046  -16.8941 C   0  0  0  0  0  0  0  0  0  0  0  0
  -21.3603   34.3565  -16.7804 C   0  0  0  0  0  0  0  0  0  0  0  0
  -18.5599   36.9169  -15.3003 N   0  0  0  0  0  0  0  0  0  0  0  0
  -22.8466   34.6634  -16.7130 C   0  0  0  0  0  0  0  0  0  0  0  0
  -17.4666   37.6850  -14.6690 C   0  0  0  0  0  0  0  0  0  0  0  0
  -19.7683   36.8934  -14.4534 C   0  0  0  0  0  0  0  0  0  0  0  0
  -17.2006   37.1377  -13.2541 C   0  0  0  0  0  0  0  0  0  0  0  0
  -19.4205   36.3537  -13.0597 C   0  0  0  0  0  0  0  0  0  0  0  0
  -18.3897   37.1502  -12.4457 O   0  0  0  0  0  0  0  0  0  0  0  0
  -16.4702   34.3521  -20.3878 H   0  0  0  0  0  0  0  0  0  0  0  0
  -17.8509   33.2366  -20.2521 H   0  0  0  0  0  0  0  0  0  0  0  0
  -16.3810   32.9449  -19.2908 H   0  0  0  0  0  0  0  0  0  0  0  0
  -16.2055   36.4522  -16.3262 H   0  0  0  0  0  0  0  0  0  0  0  0
  -21.0790   33.8056  -15.8778 H   0  0  0  0  0  0  0  0  0  0  0  0
  -21.1582   33.7502  -17.6714 H   0  0  0  0  0  0  0  0  0  0  0  0
  -23.4315   33.7419  -16.6450 H   0  0  0  0  0  0  0  0  0  0  0  0
  -23.0722   35.2914  -15.8445 H   0  0  0  0  0  0  0  0  0  0  0  0
  -23.1684   35.2189  -17.5998 H   0  0  0  0  0  0  0  0  0  0  0  0
  -17.7724   38.7361  -14.6087 H   0  0  0  0  0  0  0  0  0  0  0  0
  -16.5399   37.6361  -15.2500 H   0  0  0  0  0  0  0  0  0  0  0  0
  -20.1267   37.9262  -14.3565 H   0  0  0  0  0  0  0  0  0  0  0  0
  -20.5849   36.3257  -14.9071 H   0  0  0  0  0  0  0  0  0  0  0  0
  -16.4524   37.7586  -12.7513 H   0  0  0  0  0  0  0  0  0  0  0  0
  -16.8127   36.1129  -13.2967 H   0  0  0  0  0  0  0  0  0  0  0  0
  -20.3014   36.3996  -12.4119 H   0  0  0  0  0  0  0  0  0  0  0  0
  -19.0865   35.3107  -13.1021 H   0  0  0  0  0  0  0  0  0  0  0  0
  1  2  2  0  0  0  0
  2  3  1  0  0  0  0
  2  4  1  0  0  0  0
  3  5  1  0  0  0  0
  3  6  1  0  0  0  0
  4  7  1  0  0  0  0
  4  8  2  0  0  0  0
  5  9  2  0  0  0  0
  6 18  1  0  0  0  0
  6 19  1  0  0  0  0
  6 20  1  0  0  0  0
  7 10  1  0  0  0  0
  8 11  1  0  0  0  0
  8  9  1  0  0  0  0
  9 21  1  0  0  0  0
 10 12  1  0  0  0  0
 10 22  1  0  0  0  0
 10 23  1  0  0  0  0
 11 13  1  0  0  0  0
 11 14  1  0  0  0  0
 12 24  1  0  0  0  0
 12 25  1  0  0  0  0
 12 26  1  0  0  0  0
 13 15  1  0  0  0  0
 13 27  1  0  0  0  0
 13 28  1  0  0  0  0
 14 16  1  0  0  0  0
 14 29  1  0  0  0  0
 14 30  1  0  0  0  0
 15 17  1  0  0  0  0
 15 31  1  0  0  0  0
 15 32  1  0  0  0  0
 16 17  1  0  0  0  0
 16 33  1  0  0  0  0
 16 34  1  0  0  0  0
M  END
>  <Column 1>
CCOc1c(N2CCOCC2)cnn(C)c1=O ZINC000000001349

>  <Total Molweight>
239.274

>  <cLogP>
-0.3021

>  <cLogS>
-0.643

>  <H-Acceptors>
6

>  <H-Donors>
0

>  <Total Surface Area>
185.85

>  <MMFF94 Energy>
164.56

> <Gold.Version>
5.8.1

> <Gold.Id.Protein>
ID|2FQT|mol2

> <Gold.PLP.Fitness>
45.2961

> <Gold.PLP.PLP>
-37.5350

> <Gold.PLP.part.hbond>
-3.9454

> <Gold.PLP.part.metal>
0.0000

> <Gold.PLP.part.buried>
-3.6229

> <Gold.PLP.part.nonpolar>
-30.6966

> <Gold.PLP.part.repulsive>
0.2491

> <Gold.PLP.ligand.clash>
0.0000

> <Gold.PLP.ligand.torsion>
0.3106

> <Gold.PLP.Chemscore.Hbond>
2.7753

> <Gold.PLP.Chemscore.CHOScore>
0.0000

> <Gold.PLP.Chemscore.Metal>
0.0000

> <Gold.Chemscore.Hbonds>
donor molecule, donor type, donor heavy atom, donor atom, acceptor molecule, acceptor atom, score
      P1  H  1223  2650       L1     7  1.00
      P1  H  1912  4380       L1     1  1.00
      P1  H  1239  3336       L1     1  0.51
      P1  H  1466  3954       L1     5  0.26

> <Gold.PLP.Chemscore.Internal.Correction>
0.0567

> <Gold.Protein.RotatedTorsions>
[ 3412  950  949  948 ] final -113.73 input   60.00 | X-H torsion
[ 3476 1244 1243 1240 ] final -115.41 input   60.00 | X-H torsion
[ 2649 1223 1224 1225 ] final -176.12 input   60.00 | X-H torsion
[ 4380 1912 1911 1909 ] final  113.13 input   60.00 | X-H torsion
[ 3084  621  620  617 ] final   29.80 input   60.00 | X-H torsion

> <Gold.Protein.ActiveResidues>
 HIS54   GLU57   HIS58   ALA61   PHE62   ILE64   ARG65   ASP75   ILE76   ILE77  
 ASP78   ILE79   SER80   PRO81   ILE118  PRO119  ALA120  ALA121  ASN122  LYS124 
 GLN125  CYS126  GLY127  CO701   VAL4    GLU5    SER6    PHE7    GLU8    LEU9   
 HIS11   ARG20   HIS21   CYS22   GLY23   VAL24   HIS25   LYS35   ARG39   MET82  
 GLY83   CYS84   TYR89  

> <Gold.Protein.RotatedAtoms>
  -21.3292   38.4468  -16.0651 H   0  0  0  0  0  0  0  0  0  0  0  0  # atno 2649 bound_to 1223
  -21.1051   37.1855  -17.1167 H   0  0  0  0  0  0  0  0  0  0  0  0  # atno 2650 bound_to 1223
  -18.9595   28.8425  -12.9515 H   0  0  0  0  0  0  0  0  0  0  0  0  # atno 3084 bound_to 621 
  -28.4995   39.3310  -29.0654 H   0  0  0  0  0  0  0  0  0  0  0  0  # atno 3412 bound_to 950 
  -28.7242   38.0787  -28.0030 H   0  0  0  0  0  0  0  0  0  0  0  0  # atno 3413 bound_to 950 
  -27.6068   37.9431  -29.2197 H   0  0  0  0  0  0  0  0  0  0  0  0  # atno 3414 bound_to 950 
  -24.3425   32.2821  -19.9661 H   0  0  0  0  0  0  0  0  0  0  0  0  # atno 3476 bound_to 1244
  -19.9810   31.9493  -19.2249 H   0  0  0  0  0  0  0  0  0  0  0  0  # atno 4380 bound_to 1912
  -23.0071   31.4034  -20.2704 LP  0  0  0  0  0  0  0  0  0  0  0  0  # atno 4866 bound_to 1244
  -23.6386   32.3630  -21.4310 LP  0  0  0  0  0  0  0  0  0  0  0  0  # atno 4867 bound_to 1244
  -20.1956   38.5497  -17.2530 LP  0  0  0  0  0  0  0  0  0  0  0  0  # atno 4874 bound_to 1223
  -21.2438   30.9235  -19.2525 LP  0  0  0  0  0  0  0  0  0  0  0  0  # atno 4875 bound_to 1912
  -20.2139   30.9893  -20.5180 LP  0  0  0  0  0  0  0  0  0  0  0  0  # atno 4876 bound_to 1912
  -19.5919   27.7370  -13.9644 LP  0  0  0  0  0  0  0  0  0  0  0  0  # atno 4881 bound_to 621 
  -18.0298   27.6255  -13.5018 LP  0  0  0  0  0  0  0  0  0  0  0  0  # atno 4882 bound_to 621 

$$$$
Compound 13|Decoys_protonated|sdf|13|dock2
  -GOLD-   6122416153D 1   1.00000     0.00000

 27 29  0  0  0  0  0  0  0  0  1 V2000
  -24.4454   31.8791  -17.0128 O   0  0  0  0  0  0  0  0  0  0  0  0
  -23.3161   31.1156  -16.8735 C   0  0  0  0  0  0  0  0  0  0  0  0
  -25.3720   31.1201  -17.6525 C   0  0  0  0  0  0  0  0  0  0  0  0
  -22.1605   31.7236  -16.2187 C   0  0  0  0  0  0  0  0  0  0  0  0
  -23.5360   29.8745  -17.4440 C   0  0  0  0  0  0  0  0  0  0  0  0
  -24.8615   29.8775  -17.9403 C   0  0  0  0  0  0  0  0  0  0  0  0
  -21.7429   32.8712  -16.8088 N   0  0  0  0  0  0  0  0  0  0  0  0
  -21.5185   31.2180  -15.0801 C   0  0  0  0  0  0  0  0  0  0  0  0
  -20.6786   33.4969  -16.2257 C   0  0  0  0  0  0  0  0  0  0  0  0
  -20.4584   31.8571  -14.5367 N   0  0  0  0  0  0  0  0  0  0  0  0
  -21.8389   30.0204  -14.4745 N   0  0  0  0  0  0  0  0  0  0  0  0
  -20.0312   32.9964  -15.0918 C   0  0  0  0  0  0  0  0  0  0  0  0
  -20.1305   34.6805  -16.7071 C   0  0  0  0  0  0  0  0  0  0  0  0
  -18.9909   33.5978  -14.5244 N   0  0  0  0  0  0  0  0  0  0  0  0
  -19.0867   35.3054  -16.1422 N   0  0  0  0  0  0  0  0  0  0  0  0
  -20.6948   35.3272  -17.8001 N   0  0  0  0  0  0  0  0  0  0  0  0
  -18.5572   34.7289  -15.0678 C   0  0  0  0  0  0  0  0  0  0  0  0
  -17.4922   35.3442  -14.4810 N   0  0  0  0  0  0  0  0  0  0  0  0
  -26.3269   31.5962  -17.8291 H   0  0  0  0  0  0  0  0  0  0  0  0
  -22.8154   29.0696  -17.4911 H   0  0  0  0  0  0  0  0  0  0  0  0
  -25.3788   29.0753  -18.4475 H   0  0  0  0  0  0  0  0  0  0  0  0
  -22.5858   29.4646  -14.8729 H   0  0  0  0  0  0  0  0  0  0  0  0
  -21.6470   29.9698  -13.4836 H   0  0  0  0  0  0  0  0  0  0  0  0
  -21.5102   34.9061  -18.2249 H   0  0  0  0  0  0  0  0  0  0  0  0
  -20.0749   35.9135  -18.3396 H   0  0  0  0  0  0  0  0  0  0  0  0
  -17.0862   34.9148  -13.6674 H   0  0  0  0  0  0  0  0  0  0  0  0
  -17.1650   36.2094  -14.8736 H   0  0  0  0  0  0  0  0  0  0  0  0
  1  2  1  0  0  0  0
  1  3  1  0  0  0  0
  2  4  1  0  0  0  0
  2  5  2  0  0  0  0
  3  6  2  0  0  0  0
  3 19  1  0  0  0  0
  4  7  2  0  0  0  0
  4  8  1  0  0  0  0
  5  6  1  0  0  0  0
  5 20  1  0  0  0  0
  6 21  1  0  0  0  0
  7  9  1  0  0  0  0
  8 10  2  0  0  0  0
  8 11  1  0  0  0  0
  9 12  1  0  0  0  0
  9 13  2  0  0  0  0
 10 12  1  0  0  0  0
 11 22  1  0  0  0  0
 11 23  1  0  0  0  0
 12 14  2  0  0  0  0
 13 15  1  0  0  0  0
 13 16  1  0  0  0  0
 14 17  1  0  0  0  0
 15 17  2  0  0  0  0
 16 24  1  0  0  0  0
 16 25  1  0  0  0  0
 17 18  1  0  0  0  0
 18 26  1  0  0  0  0
 18 27  1  0  0  0  0
M  END
>  <Column 1>
Nc1nc(N)c2nc(-c3ccco3)c(N)nc2n1 ZINC000000001499

>  <Total Molweight>
243.229

>  <cLogP>
-0.1668

>  <cLogS>
-3.94

>  <H-Acceptors>
8

>  <H-Donors>
3

>  <Total Surface Area>
177.91

>  <MMFF94 Energy>
-21.97

> <Gold.Version>
5.8.1

> <Gold.Id.Protein>
ID|2FQT|mol2

> <Gold.PLP.Fitness>
43.2660

> <Gold.PLP.PLP>
-37.2831

> <Gold.PLP.part.hbond>
-3.7848

> <Gold.PLP.part.metal>
0.0000

> <Gold.PLP.part.buried>
-9.7010

> <Gold.PLP.part.nonpolar>
-26.9299

> <Gold.PLP.part.repulsive>
3.3185

> <Gold.PLP.ligand.clash>
0.0000

> <Gold.PLP.ligand.torsion>
1.0665

> <Gold.PLP.Chemscore.Hbond>
1.8160

> <Gold.PLP.Chemscore.CHOScore>
0.8891

> <Gold.PLP.Chemscore.Metal>
0.0000

> <Gold.Chemscore.Hbonds>
donor molecule, donor type, donor heavy atom, donor atom, acceptor molecule, acceptor atom, score
      L1  H    11    22       P1   427  0.82
      L1  H    11    23       P1   611  1.00
      L1  C     3    19       P1   437  0.89

> <Gold.PLP.Chemscore.Internal.Correction>
0.0007

> <Gold.Protein.RotatedTorsions>
[ 3412  950  949  948 ] final  -69.22 input   60.00 | X-H torsion
[ 3476 1244 1243 1240 ] final -102.60 input   60.00 | X-H torsion
[ 2649 1223 1224 1225 ] final  -96.33 input   60.00 | X-H torsion
[ 4380 1912 1911 1909 ] final    9.78 input   60.00 | X-H torsion
[ 3084  621  620  617 ] final  151.48 input   60.00 | X-H torsion

> <Gold.Protein.ActiveResidues>
 HIS54   GLU57   HIS58   ALA61   PHE62   ILE64   ARG65   ASP75   ILE76   ILE77  
 ASP78   ILE79   SER80   PRO81   ILE118  PRO119  ALA120  ALA121  ASN122  LYS124 
 GLN125  CYS126  GLY127  CO701   VAL4    GLU5    SER6    PHE7    GLU8    LEU9   
 HIS11   ARG20   HIS21   CYS22   GLY23   VAL24   HIS25   LYS35   ARG39   MET82  
 GLY83   CYS84   TYR89  

> <Gold.Protein.RotatedAtoms>
  -21.4776   37.3524  -16.6009 H   0  0  0  0  0  0  0  0  0  0  0  0  # atno 2649 bound_to 1223
  -20.2616   37.9685  -17.5437 H   0  0  0  0  0  0  0  0  0  0  0  0  # atno 2650 bound_to 1223
  -18.0472   27.6088  -13.5168 H   0  0  0  0  0  0  0  0  0  0  0  0  # atno 3084 bound_to 621 
  -28.8879   39.1335  -28.4861 H   0  0  0  0  0  0  0  0  0  0  0  0  # atno 3412 bound_to 950 
  -28.2346   37.6237  -28.2834 H   0  0  0  0  0  0  0  0  0  0  0  0  # atno 3413 bound_to 950 
  -27.7081   38.5956  -29.5185 H   0  0  0  0  0  0  0  0  0  0  0  0  # atno 3414 bound_to 950 
  -24.4059   32.3975  -20.1283 H   0  0  0  0  0  0  0  0  0  0  0  0  # atno 3476 bound_to 1244
  -21.1667   31.0983  -19.0588 H   0  0  0  0  0  0  0  0  0  0  0  0  # atno 4380 bound_to 1912
  -23.1144   31.4083  -20.0895 LP  0  0  0  0  0  0  0  0  0  0  0  0  # atno 4866 bound_to 1244
  -23.4675   32.2419  -21.4486 LP  0  0  0  0  0  0  0  0  0  0  0  0  # atno 4867 bound_to 1244
  -20.8805   38.8565  -16.3046 LP  0  0  0  0  0  0  0  0  0  0  0  0  # atno 4874 bound_to 1223
  -20.4342   30.8311  -20.4871 LP  0  0  0  0  0  0  0  0  0  0  0  0  # atno 4875 bound_to 1912
  -19.8294   31.9386  -19.4507 LP  0  0  0  0  0  0  0  0  0  0  0  0  # atno 4876 bound_to 1912
  -18.9330   28.8470  -12.9421 LP  0  0  0  0  0  0  0  0  0  0  0  0  # atno 4881 bound_to 621 
  -19.6074   27.7578  -13.9548 LP  0  0  0  0  0  0  0  0  0  0  0  0  # atno 4882 bound_to 621 

$$$$
Compound 14|Decoys_protonated|sdf|14|dock5
  -GOLD-   6122416153D 1   1.00000     0.00000

 30 31  0  0  0  0  0  0  0  0  3 V2000
  -21.2713   32.6798  -17.1409 O   0  5  0  0  0  0  0  0  0  0  0  0
  -20.5435   33.3189  -16.2827 N   0  3  0  0  0  0  0  0  0  0  0  0
  -20.1526   32.7340  -15.0746 C   0  0  0  0  0  0  0  0  0  0  0  0
  -20.1094   34.6171  -16.5665 C   0  0  0  0  0  0  0  0  0  0  0  0
  -19.3835   33.4132  -14.1865 N   0  0  0  0  0  0  0  0  0  0  0  0
  -20.5444   31.4451  -14.7660 N   0  0  0  0  0  0  0  0  0  0  0  0
  -20.5082   35.2301  -17.7644 N   0  0  0  0  0  0  0  0  0  0  0  0
  -19.3390   35.2994  -15.6298 C   0  0  0  0  0  0  0  0  0  0  0  0
  -18.9933   34.6823  -14.4355 C   0  0  0  0  0  0  0  0  0  0  0  0
  -18.2164   35.3324  -13.4871 N   0  0  0  0  0  0  0  0  0  0  0  0
  -18.6375   35.2583  -12.0835 C   0  0  0  0  0  0  0  0  0  0  0  0
  -17.4670   36.5433  -13.8286 C   0  0  0  0  0  0  0  0  0  0  0  0
  -19.5295   36.4547  -11.7448 C   0  0  0  0  0  0  0  0  0  0  0  0
  -18.3349   37.7726  -13.5458 C   0  0  0  0  0  0  0  0  0  0  0  0
  -18.8403   37.7743  -12.1008 C   0  0  0  0  0  0  0  0  0  0  0  0
  -21.1125   30.9302  -15.4158 H   0  0  0  0  0  0  0  0  0  0  0  0
  -20.2210   31.0805  -13.8775 H   0  0  0  0  0  0  0  0  0  0  0  0
  -20.7248   36.2194  -17.6126 H   0  0  0  0  0  0  0  0  0  0  0  0
  -21.1071   34.7224  -18.4001 H   0  0  0  0  0  0  0  0  0  0  0  0
  -18.9998   36.3010  -15.8615 H   0  0  0  0  0  0  0  0  0  0  0  0
  -19.1364   34.3129  -11.8391 H   0  0  0  0  0  0  0  0  0  0  0  0
  -17.7414   35.2901  -11.4501 H   0  0  0  0  0  0  0  0  0  0  0  0
  -16.5637   36.5863  -13.2066 H   0  0  0  0  0  0  0  0  0  0  0  0
  -17.1191   36.5664  -14.8653 H   0  0  0  0  0  0  0  0  0  0  0  0
  -19.7759   36.4430  -10.6773 H   0  0  0  0  0  0  0  0  0  0  0  0
  -20.4758   36.3842  -12.2943 H   0  0  0  0  0  0  0  0  0  0  0  0
  -19.1934   37.7837  -14.2286 H   0  0  0  0  0  0  0  0  0  0  0  0
  -17.7587   38.6849  -13.7358 H   0  0  0  0  0  0  0  0  0  0  0  0
  -19.5344   38.6085  -11.9505 H   0  0  0  0  0  0  0  0  0  0  0  0
  -17.9937   37.9350  -11.4219 H   0  0  0  0  0  0  0  0  0  0  0  0
  1  2  1  0  0  0  0
  2  3  2  0  0  0  0
  2  4  1  0  0  0  0
  3  5  1  0  0  0  0
  3  6  1  0  0  0  0
  4  7  1  0  0  0  0
  4  8  2  0  0  0  0
  5  9  2  0  0  0  0
  6 16  1  0  0  0  0
  6 17  1  0  0  0  0
  7 18  1  0  0  0  0
  7 19  1  0  0  0  0
  8  9  1  0  0  0  0
  8 20  1  0  0  0  0
  9 10  1  0  0  0  0
 10 11  1  0  0  0  0
 10 12  1  0  0  0  0
 11 13  1  0  0  0  0
 11 21  1  0  0  0  0
 11 22  1  0  0  0  0
 12 14  1  0  0  0  0
 12 23  1  0  0  0  0
 12 24  1  0  0  0  0
 13 15  1  0  0  0  0
 13 25  1  0  0  0  0
 13 26  1  0  0  0  0
 14 15  1  0  0  0  0
 14 27  1  0  0  0  0
 14 28  1  0  0  0  0
 15 29  1  0  0  0  0
 15 30  1  0  0  0  0
M  CHG  1   1  -1
M  CHG  1   2   1
M  END
>  <Column 1>
Nc1cc(N2CCCCC2)nc(N)[n+]1[O-] ZINC000000001735

>  <Total Molweight>
209.252

>  <cLogP>
0.1716

>  <cLogS>
-5.461

>  <H-Acceptors>
5

>  <H-Donors>
2

>  <Total Surface Area>
156.71

>  <MMFF94 Energy>
49.563

> <Gold.Version>
5.8.1

> <Gold.Id.Protein>
ID|2FQT|mol2

> <Gold.PLP.Fitness>
46.3737

> <Gold.PLP.PLP>
-38.8183

> <Gold.PLP.part.hbond>
-4.4238

> <Gold.PLP.part.metal>
0.0000

> <Gold.PLP.part.buried>
-7.0120

> <Gold.PLP.part.nonpolar>
-27.8078

> <Gold.PLP.part.repulsive>
0.1938

> <Gold.PLP.ligand.clash>
0.0000

> <Gold.PLP.ligand.torsion>
0.4468

> <Gold.PLP.Chemscore.Hbond>
2.7475

> <Gold.PLP.Chemscore.CHOScore>
0.0000

> <Gold.PLP.Chemscore.Metal>
0.0000

> <Gold.Chemscore.Hbonds>
donor molecule, donor type, donor heavy atom, donor atom, acceptor molecule, acceptor atom, score
      L1  H     6    17       P1   611  0.75
      L1  H     7    18       P1  1223  1.00
      P1  H  1912  4380       L1     1  1.00

> <Gold.PLP.Chemscore.Internal.Correction>
0.2064

> <Gold.Protein.RotatedTorsions>
[ 3412  950  949  948 ] final  -59.40 input   60.00 | X-H torsion
[ 3476 1244 1243 1240 ] final  120.89 input   60.00 | X-H torsion
[ 2649 1223 1224 1225 ] final   85.62 input   60.00 | X-H torsion
[ 4380 1912 1911 1909 ] final   55.60 input   60.00 | X-H torsion
[ 3084  621  620  617 ] final  121.91 input   60.00 | X-H torsion

> <Gold.Protein.ActiveResidues>
 HIS54   GLU57   HIS58   ALA61   PHE62   ILE64   ARG65   ASP75   ILE76   ILE77  
 ASP78   ILE79   SER80   PRO81   ILE118  PRO119  ALA120  ALA121  ASN122  LYS124 
 GLN125  CYS126  GLY127  CO701   VAL4    GLU5    SER6    PHE7    GLU8    LEU9   
 HIS11   ARG20   HIS21   CYS22   GLY23   VAL24   HIS25   LYS35   ARG39   MET82  
 GLY83   CYS84   TYR89  

> <Gold.Protein.RotatedAtoms>
  -20.2791   38.7897  -17.0002 H   0  0  0  0  0  0  0  0  0  0  0  0  # atno 2649 bound_to 1223
  -21.4941   38.1267  -16.0884 H   0  0  0  0  0  0  0  0  0  0  0  0  # atno 2650 bound_to 1223
  -17.9624   27.9770  -13.2242 H   0  0  0  0  0  0  0  0  0  0  0  0  # atno 3084 bound_to 621 
  -28.9308   39.0277  -28.3685 H   0  0  0  0  0  0  0  0  0  0  0  0  # atno 3412 bound_to 950 
  -28.1190   37.5829  -28.3921 H   0  0  0  0  0  0  0  0  0  0  0  0  # atno 3413 bound_to 950 
  -27.7808   38.7422  -29.5274 H   0  0  0  0  0  0  0  0  0  0  0  0  # atno 3414 bound_to 950 
  -22.9855   31.4138  -20.3266 H   0  0  0  0  0  0  0  0  0  0  0  0  # atno 3476 bound_to 1244
  -20.7091   31.6111  -18.8159 H   0  0  0  0  0  0  0  0  0  0  0  0  # atno 4380 bound_to 1912
  -23.6887   32.3950  -21.4177 LP  0  0  0  0  0  0  0  0  0  0  0  0  # atno 4866 bound_to 1244
  -24.3238   32.2459  -19.9207 LP  0  0  0  0  0  0  0  0  0  0  0  0  # atno 4867 bound_to 1244
  -20.8470   37.2846  -17.3450 LP  0  0  0  0  0  0  0  0  0  0  0  0  # atno 4874 bound_to 1223
  -21.0040   30.6223  -20.0742 LP  0  0  0  0  0  0  0  0  0  0  0  0  # atno 4875 bound_to 1912
  -19.7204   31.6311  -20.1082 LP  0  0  0  0  0  0  0  0  0  0  0  0  # atno 4876 bound_to 1912
  -19.3700   28.7888  -13.1353 LP  0  0  0  0  0  0  0  0  0  0  0  0  # atno 4881 bound_to 621 
  -19.2558   27.4452  -14.0563 LP  0  0  0  0  0  0  0  0  0  0  0  0  # atno 4882 bound_to 621 

$$$$
Compound 15|Decoys_protonated|sdf|15|dock2
  -GOLD-   6122416153D 1   1.00000     0.00000

 29 31  0  0  0  0  0  0  0  0  1 V2000
  -19.1458   32.6743  -16.5515 O   0  0  0  0  0  0  0  0  0  0  0  0
  -20.1006   33.4132  -16.7857 C   0  0  0  0  0  0  0  0  0  0  0  0
  -20.0584   34.6105  -17.4958 N   0  0  0  0  0  0  0  0  0  0  0  0
  -21.4259   33.0423  -16.2931 C   0  0  0  0  0  0  0  0  0  0  0  0
  -21.1484   35.4007  -17.7323 N   0  0  0  0  0  0  0  0  0  0  0  0
  -18.8104   35.0314  -18.0019 N   0  0  0  0  0  0  0  0  0  0  0  0
  -22.4642   33.9122  -16.5868 C   0  0  0  0  0  0  0  0  0  0  0  0
  -21.6379   31.8671  -15.5606 C   0  0  0  0  0  0  0  0  0  0  0  0
  -22.2854   35.0927  -17.3155 N   0  0  0  0  0  0  0  0  0  0  0  0
  -18.1448   33.9908  -18.8006 C   0  0  0  0  0  0  0  0  0  0  0  0
  -17.9128   35.5297  -16.9487 C   0  0  0  0  0  0  0  0  0  0  0  0
  -23.7488   33.5902  -16.1313 C   0  0  0  0  0  0  0  0  0  0  0  0
  -22.9211   31.5587  -15.1133 C   0  0  0  0  0  0  0  0  0  0  0  0
  -16.8191   34.5200  -19.3637 C   0  0  0  0  0  0  0  0  0  0  0  0
  -16.5934   36.0171  -17.5620 C   0  0  0  0  0  0  0  0  0  0  0  0
  -23.9782   32.4211  -15.3988 C   0  0  0  0  0  0  0  0  0  0  0  0
  -15.9546   34.9743  -18.3126 O   0  0  0  0  0  0  0  0  0  0  0  0
  -20.8079   31.1986  -15.3416 H   0  0  0  0  0  0  0  0  0  0  0  0
  -18.7888   33.6813  -19.6318 H   0  0  0  0  0  0  0  0  0  0  0  0
  -17.9402   33.1070  -18.1826 H   0  0  0  0  0  0  0  0  0  0  0  0
  -18.3850   36.3589  -16.4096 H   0  0  0  0  0  0  0  0  0  0  0  0
  -17.6949   34.7341  -16.2245 H   0  0  0  0  0  0  0  0  0  0  0  0
  -24.5796   34.2577  -16.3495 H   0  0  0  0  0  0  0  0  0  0  0  0
  -23.0958   30.6485  -14.5440 H   0  0  0  0  0  0  0  0  0  0  0  0
  -16.9853   35.3390  -20.0741 H   0  0  0  0  0  0  0  0  0  0  0  0
  -16.2971   33.7192  -19.8971 H   0  0  0  0  0  0  0  0  0  0  0  0
  -15.9048   36.3203  -16.7668 H   0  0  0  0  0  0  0  0  0  0  0  0
  -16.7522   36.8855  -18.2129 H   0  0  0  0  0  0  0  0  0  0  0  0
  -24.9820   32.1854  -15.0520 H   0  0  0  0  0  0  0  0  0  0  0  0
  1  2  2  0  0  0  0
  2  3  1  0  0  0  0
  2  4  1  0  0  0  0
  3  5  1  0  0  0  0
  3  6  1  0  0  0  0
  4  7  2  0  0  0  0
  4  8  1  0  0  0  0
  5  9  2  0  0  0  0
  6 10  1  0  0  0  0
  6 11  1  0  0  0  0
  7 12  1  0  0  0  0
  7  9  1  0  0  0  0
  8 13  2  0  0  0  0
  8 18  1  0  0  0  0
 10 14  1  0  0  0  0
 10 19  1  0  0  0  0
 10 20  1  0  0  0  0
 11 15  1  0  0  0  0
 11 21  1  0  0  0  0
 11 22  1  0  0  0  0
 12 16  2  0  0  0  0
 12 23  1  0  0  0  0
 13 16  1  0  0  0  0
 13 24  1  0  0  0  0
 14 17  1  0  0  0  0
 14 25  1  0  0  0  0
 14 26  1  0  0  0  0
 15 17  1  0  0  0  0
 15 27  1  0  0  0  0
 15 28  1  0  0  0  0
 16 29  1  0  0  0  0
M  END
>  <Column 1>
O=c1c2ccccc2nnn1N1CCOCC1 ZINC000000001746

>  <Total Molweight>
232.242

>  <cLogP>
0.5756

>  <cLogS>
-1.415

>  <H-Acceptors>
6

>  <H-Donors>
0

>  <Total Surface Area>
172.67

>  <MMFF94 Energy>
111.27

> <Gold.Version>
5.8.1

> <Gold.Id.Protein>
ID|2FQT|mol2

> <Gold.PLP.Fitness>
52.0310

> <Gold.PLP.PLP>
-45.3550

> <Gold.PLP.part.hbond>
-4.3266

> <Gold.PLP.part.metal>
0.0000

> <Gold.PLP.part.buried>
-8.4404

> <Gold.PLP.part.nonpolar>
-34.1680

> <Gold.PLP.part.repulsive>
0.3013

> <Gold.PLP.ligand.clash>
0.0000

> <Gold.PLP.ligand.torsion>
0.2088

> <Gold.PLP.Chemscore.Hbond>
2.3527

> <Gold.PLP.Chemscore.CHOScore>
0.0000

> <Gold.PLP.Chemscore.Metal>
0.0000

> <Gold.Chemscore.Hbonds>
donor molecule, donor type, donor heavy atom, donor atom, acceptor molecule, acceptor atom, score
      P1  H  1223  2650       L1     5  1.00
      P1  H  1239  3336       L1     5  1.00
      P1  H  1466  3954       L1    17  0.35

> <Gold.PLP.Chemscore.Internal.Correction>
0.0354

> <Gold.Protein.RotatedTorsions>
[ 3412  950  949  948 ] final   33.69 input   60.00 | X-H torsion
[ 3476 1244 1243 1240 ] final   99.27 input   60.00 | X-H torsion
[ 2649 1223 1224 1225 ] final -172.86 input   60.00 | X-H torsion
[ 4380 1912 1911 1909 ] final  -45.06 input   60.00 | X-H torsion
[ 3084  621  620  617 ] final -131.60 input   60.00 | X-H torsion

> <Gold.Protein.ActiveResidues>
 HIS54   GLU57   HIS58   ALA61   PHE62   ILE64   ARG65   ASP75   ILE76   ILE77  
 ASP78   ILE79   SER80   PRO81   ILE118  PRO119  ALA120  ALA121  ASN122  LYS124 
 GLN125  CYS126  GLY127  CO701   VAL4    GLU5    SER6    PHE7    GLU8    LEU9   
 HIS11   ARG20   HIS21   CYS22   GLY23   VAL24   HIS25   LYS35   ARG39   MET82  
 GLY83   CYS84   TYR89  

> <Gold.Protein.RotatedAtoms>
  -21.3588   38.4013  -16.0617 H   0  0  0  0  0  0  0  0  0  0  0  0  # atno 2649 bound_to 1223
  -21.0671   37.1904  -17.1553 H   0  0  0  0  0  0  0  0  0  0  0  0  # atno 2650 bound_to 1223
  -19.0535   27.3568  -14.0463 H   0  0  0  0  0  0  0  0  0  0  0  0  # atno 3084 bound_to 621 
  -28.4366   37.7516  -28.1293 H   0  0  0  0  0  0  0  0  0  0  0  0  # atno 3412 bound_to 950 
  -27.6223   38.3330  -29.4508 H   0  0  0  0  0  0  0  0  0  0  0  0  # atno 3413 bound_to 950 
  -28.7716   39.2682  -28.7079 H   0  0  0  0  0  0  0  0  0  0  0  0  # atno 3414 bound_to 950 
  -22.8991   31.4878  -20.6589 H   0  0  0  0  0  0  0  0  0  0  0  0  # atno 3476 bound_to 1244
  -21.1578   30.6596  -19.8011 H   0  0  0  0  0  0  0  0  0  0  0  0  # atno 4380 bound_to 1912
  -23.9725   32.5467  -21.2708 LP  0  0  0  0  0  0  0  0  0  0  0  0  # atno 4866 bound_to 1244
  -24.1270   32.0196  -19.7330 LP  0  0  0  0  0  0  0  0  0  0  0  0  # atno 4867 bound_to 1244
  -20.2040   38.5897  -17.2184 LP  0  0  0  0  0  0  0  0  0  0  0  0  # atno 4874 bound_to 1223
  -19.8190   31.4221  -20.3247 LP  0  0  0  0  0  0  0  0  0  0  0  0  # atno 4875 bound_to 1912
  -20.4535   31.7896  -18.8656 LP  0  0  0  0  0  0  0  0  0  0  0  0  # atno 4876 bound_to 1912
  -17.9959   28.1614  -13.1069 LP  0  0  0  0  0  0  0  0  0  0  0  0  # atno 4881 bound_to 621 
  -19.5312   28.6972  -13.2568 LP  0  0  0  0  0  0  0  0  0  0  0  0  # atno 4882 bound_to 621 

$$$$
Compound 16|Decoys_protonated|sdf|16|dock4
  -GOLD-   6122416153D 1   1.00000     0.00000

 39 41  0  0  0  0  0  0  0  0  1 V2000
  -26.1686   30.2757  -18.0998 O   0  0  0  0  0  0  0  0  0  0  0  0
  -24.9705   29.5520  -18.4117 C   0  0  0  0  0  0  0  0  0  0  0  0
  -25.9087   31.6872  -18.1407 C   0  0  0  0  0  0  0  0  0  0  0  0
  -23.8476   29.8448  -17.4034 C   0  0  0  0  0  0  0  0  0  0  0  0
  -24.8404   32.0973  -17.1168 C   0  0  0  0  0  0  0  0  0  0  0  0
  -23.6172   31.2927  -17.2922 N   0  0  0  0  0  0  0  0  0  0  0  0
  -22.4892   31.7579  -16.6218 C   0  0  0  0  0  0  0  0  0  0  0  0
  -22.0390   33.0110  -16.8386 N   0  0  0  0  0  0  0  0  0  0  0  0
  -21.7665   30.9572  -15.7485 C   0  0  0  0  0  0  0  0  0  0  0  0
  -20.9122   33.5111  -16.1956 N   0  0  0  0  0  0  0  0  0  0  0  0
  -20.6296   31.4537  -15.1011 C   0  0  0  0  0  0  0  0  0  0  0  0
  -20.2140   32.7511  -15.3372 C   0  0  0  0  0  0  0  0  0  0  0  0
  -19.1000   33.3159  -14.7330 N   0  0  0  0  0  0  0  0  0  0  0  0
  -18.6138   34.5709  -14.9035 N   0  0  0  0  0  0  0  0  0  0  0  0
  -18.3103   35.4510  -13.8900 C   0  0  0  0  0  0  0  0  0  0  0  0
  -18.3930   35.1805  -16.1173 C   0  0  0  0  0  0  0  0  0  0  0  0
  -17.8652   36.6236  -14.4688 C   0  0  0  0  0  0  0  0  0  0  0  0
  -18.4656   35.1001  -12.4541 C   0  0  0  0  0  0  0  0  0  0  0  0
  -17.9173   36.4535  -15.8698 C   0  0  0  0  0  0  0  0  0  0  0  0
  -18.6493   34.4978  -17.4127 C   0  0  0  0  0  0  0  0  0  0  0  0
  -25.2132   28.4848  -18.3950 H   0  0  0  0  0  0  0  0  0  0  0  0
  -24.6561   29.8048  -19.4316 H   0  0  0  0  0  0  0  0  0  0  0  0
  -25.6042   31.9639  -19.1573 H   0  0  0  0  0  0  0  0  0  0  0  0
  -26.8485   32.2048  -17.9237 H   0  0  0  0  0  0  0  0  0  0  0  0
  -24.1361   29.4592  -16.4176 H   0  0  0  0  0  0  0  0  0  0  0  0
  -22.9564   29.3033  -17.7341 H   0  0  0  0  0  0  0  0  0  0  0  0
  -24.6394   33.1672  -17.2499 H   0  0  0  0  0  0  0  0  0  0  0  0
  -25.2309   31.9365  -16.1038 H   0  0  0  0  0  0  0  0  0  0  0  0
  -22.0466   29.9263  -15.5693 H   0  0  0  0  0  0  0  0  0  0  0  0
  -20.0808   30.8069  -14.4246 H   0  0  0  0  0  0  0  0  0  0  0  0
  -18.6001   32.7145  -14.0948 H   0  0  0  0  0  0  0  0  0  0  0  0
  -17.5447   37.5098  -13.9357 H   0  0  0  0  0  0  0  0  0  0  0  0
  -19.4908   34.7821  -12.2393 H   0  0  0  0  0  0  0  0  0  0  0  0
  -18.2422   35.9616  -11.8162 H   0  0  0  0  0  0  0  0  0  0  0  0
  -17.7819   34.2913  -12.1775 H   0  0  0  0  0  0  0  0  0  0  0  0
  -17.6443   37.1836  -16.6213 H   0  0  0  0  0  0  0  0  0  0  0  0
  -17.9794   33.6413  -17.5376 H   0  0  0  0  0  0  0  0  0  0  0  0
  -19.6842   34.1454  -17.4693 H   0  0  0  0  0  0  0  0  0  0  0  0
  -18.4821   35.1802  -18.2524 H   0  0  0  0  0  0  0  0  0  0  0  0
  1  2  1  0  0  0  0
  1  3  1  0  0  0  0
  2  4  1  0  0  0  0
  2 21  1  0  0  0  0
  2 22  1  0  0  0  0
  3  5  1  0  0  0  0
  3 23  1  0  0  0  0
  3 24  1  0  0  0  0
  4  6  1  0  0  0  0
  4 25  1  0  0  0  0
  4 26  1  0  0  0  0
  5  6  1  0  0  0  0
  5 27  1  0  0  0  0
  5 28  1  0  0  0  0
  6  7  1  0  0  0  0
  7  8  2  0  0  0  0
  7  9  1  0  0  0  0
  8 10  1  0  0  0  0
  9 11  2  0  0  0  0
  9 29  1  0  0  0  0
 10 12  2  0  0  0  0
 11 12  1  0  0  0  0
 11 30  1  0  0  0  0
 12 13  1  0  0  0  0
 13 14  1  0  0  0  0
 13 31  1  0  0  0  0
 14 15  1  0  0  0  0
 14 16  1  0  0  0  0
 15 17  2  0  0  0  0
 15 18  1  0  0  0  0
 16 19  2  0  0  0  0
 16 20  1  0  0  0  0
 17 19  1  0  0  0  0
 17 32  1  0  0  0  0
 18 33  1  0  0  0  0
 18 34  1  0  0  0  0
 18 35  1  0  0  0  0
 19 36  1  0  0  0  0
 20 37  1  0  0  0  0
 20 38  1  0  0  0  0
 20 39  1  0  0  0  0
M  END
>  <Column 1>
Cc1ccc(C)n1Nc1ccc(N2CCOCC2)nn1 ZINC000000001749

>  <Total Molweight>
273.339

>  <cLogP>
1.5422

>  <cLogS>
-5.421

>  <H-Acceptors>
6

>  <H-Donors>
1

>  <Total Surface Area>
217.56

>  <MMFF94 Energy>
27.498

> <Gold.Version>
5.8.1

> <Gold.Id.Protein>
ID|2FQT|mol2

> <Gold.PLP.Fitness>
53.3865

> <Gold.PLP.PLP>
-47.3911

> <Gold.PLP.part.hbond>
-0.9270

> <Gold.PLP.part.metal>
-1.0000

> <Gold.PLP.part.buried>
-8.7935

> <Gold.PLP.part.nonpolar>
-37.3175

> <Gold.PLP.part.repulsive>
0.2861

> <Gold.PLP.ligand.clash>
0.0000

> <Gold.PLP.ligand.torsion>
0.7214

> <Gold.PLP.Chemscore.Hbond>
0.0593

> <Gold.PLP.Chemscore.CHOScore>
0.0000

> <Gold.PLP.Chemscore.Metal>
0.9865

> <Gold.Chemscore.Hbonds>
donor molecule, donor type, donor heavy atom, donor atom, acceptor molecule, acceptor atom, score
      L1  H    13    31       P1   606  0.06
      P1  M  1222  1222       L1     1  0.99

> <Gold.PLP.Chemscore.Internal.Correction>
1.3411

> <Gold.Protein.RotatedTorsions>
[ 3412  950  949  948 ] final -148.56 input   60.00 | X-H torsion
[ 3476 1244 1243 1240 ] final -118.95 input   60.00 | X-H torsion
[ 2649 1223 1224 1225 ] final   19.55 input   60.00 | X-H torsion
[ 4380 1912 1911 1909 ] final  -59.98 input   60.00 | X-H torsion
[ 3084  621  620  617 ] final  167.17 input   60.00 | X-H torsion

> <Gold.Protein.ActiveResidues>
 HIS54   GLU57   HIS58   ALA61   PHE62   ILE64   ARG65   ASP75   ILE76   ILE77  
 ASP78   ILE79   SER80   PRO81   ILE118  PRO119  ALA120  ALA121  ASN122  LYS124 
 GLN125  CYS126  GLY127  CO701   VAL4    GLU5    SER6    PHE7    GLU8    LEU9   
 HIS11   ARG20   HIS21   CYS22   GLY23   VAL24   HIS25   LYS35   ARG39   MET82  
 GLY83   CYS84   TYR89  

> <Gold.Protein.RotatedAtoms>
  -20.2881   37.9059  -17.5545 H   0  0  0  0  0  0  0  0  0  0  0  0  # atno 2649 bound_to 1223
  -20.8267   38.8900  -16.3344 H   0  0  0  0  0  0  0  0  0  0  0  0  # atno 2650 bound_to 1223
  -18.1821   27.4571  -13.6721 H   0  0  0  0  0  0  0  0  0  0  0  0  # atno 3084 bound_to 621 
  -28.0912   39.1286  -29.4123 H   0  0  0  0  0  0  0  0  0  0  0  0  # atno 3412 bound_to 950 
  -28.9385   38.6030  -28.0882 H   0  0  0  0  0  0  0  0  0  0  0  0  # atno 3413 bound_to 950 
  -27.8009   37.6212  -28.7876 H   0  0  0  0  0  0  0  0  0  0  0  0  # atno 3414 bound_to 950 
  -24.3189   32.2476  -19.9262 H   0  0  0  0  0  0  0  0  0  0  0  0  # atno 3476 bound_to 1244
  -21.0412   30.6265  -20.0118 H   0  0  0  0  0  0  0  0  0  0  0  0  # atno 4380 bound_to 1912
  -22.9831   31.4075  -20.3233 LP  0  0  0  0  0  0  0  0  0  0  0  0  # atno 4866 bound_to 1244
  -23.6865   32.3937  -21.4184 LP  0  0  0  0  0  0  0  0  0  0  0  0  # atno 4867 bound_to 1244
  -21.4956   37.4033  -16.5565 LP  0  0  0  0  0  0  0  0  0  0  0  0  # atno 4874 bound_to 1223
  -19.7356   31.5860  -20.1630 LP  0  0  0  0  0  0  0  0  0  0  0  0  # atno 4875 bound_to 1912
  -20.6543   31.6590  -18.8150 LP  0  0  0  0  0  0  0  0  0  0  0  0  # atno 4876 bound_to 1912
  -18.6857   28.7945  -12.8938 LP  0  0  0  0  0  0  0  0  0  0  0  0  # atno 4881 bound_to 621 
  -19.7188   27.9631  -13.8467 LP  0  0  0  0  0  0  0  0  0  0  0  0  # atno 4882 bound_to 621 

$$$$
Compound 17|Decoys_protonated|sdf|17|dock2
  -GOLD-   6122416153D 1   1.00000     0.00000

 24 25  0  0  0  0  0  0  0  0  3 V2000
  -27.0897   29.4661  -19.8972 O   0  0  0  0  0  0  0  0  0  0  0  0
  -26.2998   30.3548  -19.5553 N   0  3  0  0  0  0  0  0  0  0  0  0
  -26.3545   31.5440  -19.8991 O   0  5  0  0  0  0  0  0  0  0  0  0
  -25.2222   30.0011  -18.6863 C   0  0  0  0  0  0  0  0  0  0  0  0
  -24.4835   31.0235  -18.1831 O   0  0  0  0  0  0  0  0  0  0  0  0
  -24.7692   28.7816  -18.2432 C   0  0  0  0  0  0  0  0  0  0  0  0
  -23.5216   30.4531  -17.3889 C   0  0  0  0  0  0  0  0  0  0  0  0
  -23.6654   29.0753  -17.4016 C   0  0  0  0  0  0  0  0  0  0  0  0
  -22.5723   31.2966  -16.7070 C   0  0  0  0  0  0  0  0  0  0  0  0
  -22.0332   32.3038  -17.3121 N   0  0  0  0  0  0  0  0  0  0  0  0
  -21.1501   33.0992  -16.6399 N   0  0  0  0  0  0  0  0  0  0  0  0
  -20.7883   34.4387  -16.8838 C   0  0  0  0  0  0  0  0  0  0  0  0
  -20.3388   32.5265  -15.5906 C   0  0  0  0  0  0  0  0  0  0  0  0
  -21.1958   35.2106  -17.7359 O   0  0  0  0  0  0  0  0  0  0  0  0
  -19.8235   34.7822  -15.9443 N   0  0  0  0  0  0  0  0  0  0  0  0
  -19.5783   33.7136  -15.0176 C   0  0  0  0  0  0  0  0  0  0  0  0
  -25.1796   27.8126  -18.4930 H   0  0  0  0  0  0  0  0  0  0  0  0
  -23.0453   28.3698  -16.8639 H   0  0  0  0  0  0  0  0  0  0  0  0
  -22.3505   31.0043  -15.6706 H   0  0  0  0  0  0  0  0  0  0  0  0
  -19.6586   31.7934  -16.0369 H   0  0  0  0  0  0  0  0  0  0  0  0
  -20.9690   32.0353  -14.8435 H   0  0  0  0  0  0  0  0  0  0  0  0
  -19.4276   35.7122  -15.9202 H   0  0  0  0  0  0  0  0  0  0  0  0
  -19.9696   34.0133  -14.0407 H   0  0  0  0  0  0  0  0  0  0  0  0
  -18.5038   33.5293  -14.9358 H   0  0  0  0  0  0  0  0  0  0  0  0
  1  2  2  0  0  0  0
  2  3  1  0  0  0  0
  2  4  1  0  0  0  0
  4  5  1  0  0  0  0
  4  6  2  0  0  0  0
  5  7  1  0  0  0  0
  6  8  1  0  0  0  0
  6 17  1  0  0  0  0
  7  9  1  0  0  0  0
  7  8  2  0  0  0  0
  8 18  1  0  0  0  0
  9 10  2  0  0  0  0
  9 19  1  0  0  0  0
 10 11  1  0  0  0  0
 11 12  1  0  0  0  0
 11 13  1  0  0  0  0
 12 14  2  0  0  0  0
 12 15  1  0  0  0  0
 13 16  1  0  0  0  0
 13 20  1  0  0  0  0
 13 21  1  0  0  0  0
 15 16  1  0  0  0  0
 15 22  1  0  0  0  0
 16 23  1  0  0  0  0
 16 24  1  0  0  0  0
M  CHG  1   2   1
M  CHG  1   3  -1
M  END
>  <Column 1>
O=C1NCCN1N=Cc1ccc([N+](=O)[O-])o1 ZINC000000001803

>  <Total Molweight>
224.176

>  <cLogP>
-0.02

>  <cLogS>
-3.038

>  <H-Acceptors>
7

>  <H-Donors>
1

>  <Total Surface Area>
164.91

>  <MMFF94 Energy>
65.515

> <Gold.Version>
5.8.1

> <Gold.Id.Protein>
ID|2FQT|mol2

> <Gold.PLP.Fitness>
60.1324

> <Gold.PLP.PLP>
-40.1751

> <Gold.PLP.part.hbond>
-6.2961

> <Gold.PLP.part.metal>
-1.0000

> <Gold.PLP.part.buried>
-1.0714

> <Gold.PLP.part.nonpolar>
-32.7714

> <Gold.PLP.part.repulsive>
0.4052

> <Gold.PLP.ligand.clash>
0.0000

> <Gold.PLP.ligand.torsion>
0.5289

> <Gold.PLP.Chemscore.Hbond>
5.0000

> <Gold.PLP.Chemscore.CHOScore>
0.0000

> <Gold.PLP.Chemscore.Metal>
1.0000

> <Gold.Chemscore.Hbonds>
donor molecule, donor type, donor heavy atom, donor atom, acceptor molecule, acceptor atom, score
      P1  H   966  3428       L1     1  1.00
      P1  H  1244  3476       L1     5  1.00
      P1  H  1223  2650       L1    14  1.00
      P1  H  1912  4380       L1    10  1.00
      P1  H  1239  3336       L1    14  1.00
      P1  M  1222  1222       L1     1  1.00

> <Gold.PLP.Chemscore.Internal.Correction>
0.0150

> <Gold.Protein.RotatedTorsions>
[ 3412  950  949  948 ] final  148.64 input   60.00 | X-H torsion
[ 3476 1244 1243 1240 ] final -177.03 input   60.00 | X-H torsion
[ 2649 1223 1224 1225 ] final  179.27 input   60.00 | X-H torsion
[ 4380 1912 1911 1909 ] final   40.80 input   60.00 | X-H torsion
[ 3084  621  620  617 ] final  -31.09 input   60.00 | X-H torsion

> <Gold.Protein.ActiveResidues>
 HIS54   GLU57   HIS58   ALA61   PHE62   ILE64   ARG65   ASP75   ILE76   ILE77  
 ASP78   ILE79   SER80   PRO81   ILE118  PRO119  ALA120  ALA121  ASN122  LYS124 
 GLN125  CYS126  GLY127  CO701   VAL4    GLU5    SER6    PHE7    GLU8    LEU9   
 HIS11   ARG20   HIS21   CYS22   GLY23   VAL24   HIS25   LYS35   ARG39   MET82  
 GLY83   CYS84   TYR89  

> <Gold.Protein.RotatedAtoms>
  -21.2849   38.5091  -16.0740 H   0  0  0  0  0  0  0  0  0  0  0  0  # atno 2649 bound_to 1223
  -21.1576   37.1833  -17.0604 H   0  0  0  0  0  0  0  0  0  0  0  0  # atno 2650 bound_to 1223
  -19.6914   28.5013  -13.4495 H   0  0  0  0  0  0  0  0  0  0  0  0  # atno 3084 bound_to 621 
  -27.6079   38.2564  -29.4187 H   0  0  0  0  0  0  0  0  0  0  0  0  # atno 3412 bound_to 950 
  -28.7283   39.2946  -28.7753 H   0  0  0  0  0  0  0  0  0  0  0  0  # atno 3413 bound_to 950 
  -28.4943   37.8018  -28.0941 H   0  0  0  0  0  0  0  0  0  0  0  0  # atno 3414 bound_to 950 
  -23.6677   31.6595  -19.6892 H   0  0  0  0  0  0  0  0  0  0  0  0  # atno 3476 bound_to 1244
  -20.8894   31.4526  -18.8390 H   0  0  0  0  0  0  0  0  0  0  0  0  # atno 4380 bound_to 1912
  -22.9915   31.7660  -21.1655 LP  0  0  0  0  0  0  0  0  0  0  0  0  # atno 4866 bound_to 1244
  -24.3339   32.6274  -20.8149 LP  0  0  0  0  0  0  0  0  0  0  0  0  # atno 4867 bound_to 1244
  -20.1876   38.4905  -17.2997 LP  0  0  0  0  0  0  0  0  0  0  0  0  # atno 4874 bound_to 1223
  -20.8403   30.6468  -20.2519 LP  0  0  0  0  0  0  0  0  0  0  0  0  # atno 4875 bound_to 1912
  -19.7025   31.7662  -19.9072 LP  0  0  0  0  0  0  0  0  0  0  0  0  # atno 4876 bound_to 1912
  -18.7474   27.2910  -13.9900 LP  0  0  0  0  0  0  0  0  0  0  0  0  # atno 4881 bound_to 621 
  -18.1373   28.4151  -12.9747 LP  0  0  0  0  0  0  0  0  0  0  0  0  # atno 4882 bound_to 621 

$$$$
Compound 18|Decoys_protonated|sdf|18|dock2
  -GOLD-   6122416153D 1   1.00000     0.00000

 30 30  0  0  0  0  0  0  0  0  3 V2000
  -20.6297   35.4037  -17.9514 O   0  5  0  0  0  0  0  0  0  0  0  0
  -19.6438   34.9078  -17.0944 N   0  3  0  0  0  0  0  0  0  0  0  0
  -18.5977   35.9901  -16.8332 C   0  0  0  0  0  0  0  0  0  0  0  0
  -20.2941   34.5575  -15.7717 C   0  0  0  0  0  0  0  0  0  0  0  0
  -19.0250   33.6678  -17.7150 C   0  0  0  0  0  0  0  0  0  0  0  0
  -17.5828   35.6913  -16.0160 N   0  0  0  0  0  0  0  0  0  0  0  0
  -18.6888   37.1464  -17.4988 N   0  0  0  0  0  0  0  0  0  0  0  0
  -19.4674   33.8568  -14.7244 C   0  0  0  0  0  0  0  0  0  0  0  0
  -18.2573   33.8289  -19.0049 C   0  0  0  0  0  0  0  0  0  0  0  0
  -16.6902   36.6453  -15.8356 C   0  0  0  0  0  0  0  0  0  0  0  0
  -17.7327   38.0242  -17.2470 C   0  0  0  0  0  0  0  0  0  0  0  0
  -19.0162   34.4335  -13.6021 C   0  0  0  0  0  0  0  0  0  0  0  0
  -17.1080   34.5075  -19.1260 C   0  0  0  0  0  0  0  0  0  0  0  0
  -16.7150   37.8260  -16.4290 N   0  0  0  0  0  0  0  0  0  0  0  0
  -15.6587   36.3850  -14.9800 N   0  0  0  0  0  0  0  0  0  0  0  0
  -17.7998   39.2261  -17.8905 N   0  0  0  0  0  0  0  0  0  0  0  0
  -21.1714   33.9538  -16.0398 H   0  0  0  0  0  0  0  0  0  0  0  0
  -20.6786   35.5000  -15.3606 H   0  0  0  0  0  0  0  0  0  0  0  0
  -18.3758   33.2111  -16.9592 H   0  0  0  0  0  0  0  0  0  0  0  0
  -19.8716   32.9877  -17.8773 H   0  0  0  0  0  0  0  0  0  0  0  0
  -19.2045   32.8187  -14.9216 H   0  0  0  0  0  0  0  0  0  0  0  0
  -18.6709   33.3448  -19.8861 H   0  0  0  0  0  0  0  0  0  0  0  0
  -18.4088   33.8731  -12.8960 H   0  0  0  0  0  0  0  0  0  0  0  0
  -19.2277   35.4715  -13.3610 H   0  0  0  0  0  0  0  0  0  0  0  0
  -16.6356   34.9930  -18.2778 H   0  0  0  0  0  0  0  0  0  0  0  0
  -16.5999   34.5680  -20.0837 H   0  0  0  0  0  0  0  0  0  0  0  0
  -15.6262   35.4871  -14.5306 H   0  0  0  0  0  0  0  0  0  0  0  0
  -14.8942   37.0392  -14.9631 H   0  0  0  0  0  0  0  0  0  0  0  0
  -18.5620   39.3966  -18.5222 H   0  0  0  0  0  0  0  0  0  0  0  0
  -17.1207   39.9271  -17.6468 H   0  0  0  0  0  0  0  0  0  0  0  0
  1  2  1  0  0  0  0
  2  3  1  0  0  0  0
  2  4  1  0  0  0  0
  2  5  1  0  0  0  0
  3  6  2  0  0  0  0
  3  7  1  0  0  0  0
  4  8  1  0  0  0  0
  4 17  1  0  0  0  0
  4 18  1  0  0  0  0
  5  9  1  0  0  0  0
  5 19  1  0  0  0  0
  5 20  1  0  0  0  0
  6 10  1  0  0  0  0
  7 11  2  0  0  0  0
  8 12  2  0  0  0  0
  8 21  1  0  0  0  0
  9 13  2  0  0  0  0
  9 22  1  0  0  0  0
 10 14  2  0  0  0  0
 10 15  1  0  0  0  0
 11 16  1  0  0  0  0
 11 14  1  0  0  0  0
 12 23  1  0  0  0  0
 12 24  1  0  0  0  0
 13 25  1  0  0  0  0
 13 26  1  0  0  0  0
 15 27  1  0  0  0  0
 15 28  1  0  0  0  0
 16 29  1  0  0  0  0
 16 30  1  0  0  0  0
M  CHG  1   1  -1
M  CHG  1   2   1
M  END
>  <Column 1>
C=CC[N+]([O-])(CC=C)c1nc(N)nc(N)n1 ZINC000000001876

>  <Total Molweight>
222.251

>  <cLogP>
0.0951

>  <cLogS>
-3.13

>  <H-Acceptors>
6

>  <H-Donors>
2

>  <Total Surface Area>
175.35

>  <MMFF94 Energy>
-161.87

> <Gold.Version>
5.8.1

> <Gold.Id.Protein>
ID|2FQT|mol2

> <Gold.PLP.Fitness>
50.0332

> <Gold.PLP.PLP>
-37.5356

> <Gold.PLP.part.hbond>
-6.0715

> <Gold.PLP.part.metal>
0.0000

> <Gold.PLP.part.buried>
-5.2381

> <Gold.PLP.part.nonpolar>
-27.3615

> <Gold.PLP.part.repulsive>
0.4019

> <Gold.PLP.ligand.clash>
0.0000

> <Gold.PLP.ligand.torsion>
0.1704

> <Gold.PLP.Chemscore.Hbond>
4.2608

> <Gold.PLP.Chemscore.CHOScore>
0.0000

> <Gold.PLP.Chemscore.Metal>
0.0000

> <Gold.Chemscore.Hbonds>
donor molecule, donor type, donor heavy atom, donor atom, acceptor molecule, acceptor atom, score
      L1  H    15    27       P1   595  0.99
      P1  H  1223  2649       L1     1  1.00
      P1  H  1223  2650       L1     7  0.27
      P1  H  1230  2756       L1     7  1.00
      P1  H  1239  3336       L1     1  1.00

> <Gold.PLP.Chemscore.Internal.Correction>
0.0561

> <Gold.Protein.RotatedTorsions>
[ 3412  950  949  948 ] final -164.79 input   60.00 | X-H torsion
[ 3476 1244 1243 1240 ] final -117.53 input   60.00 | X-H torsion
[ 2649 1223 1224 1225 ] final  -59.62 input   60.00 | X-H torsion
[ 4380 1912 1911 1909 ] final -119.49 input   60.00 | X-H torsion
[ 3084  621  620  617 ] final  144.95 input   60.00 | X-H torsion

> <Gold.Protein.ActiveResidues>
 HIS54   GLU57   HIS58   ALA61   PHE62   ILE64   ARG65   ASP75   ILE76   ILE77  
 ASP78   ILE79   SER80   PRO81   ILE118  PRO119  ALA120  ALA121  ASN122  LYS124 
 GLN125  CYS126  GLY127  CO701   VAL4    GLU5    SER6    PHE7    GLU8    LEU9   
 HIS11   ARG20   HIS21   CYS22   GLY23   VAL24   HIS25   LYS35   ARG39   MET82  
 GLY83   CYS84   TYR89  

> <Gold.Protein.RotatedAtoms>
  -21.1450   37.1833  -17.0742 H   0  0  0  0  0  0  0  0  0  0  0  0  # atno 2649 bound_to 1223
  -20.1755   38.5097  -17.2928 H   0  0  0  0  0  0  0  0  0  0  0  0  # atno 2650 bound_to 1223
  -18.0085   27.6828  -13.4505 H   0  0  0  0  0  0  0  0  0  0  0  0  # atno 3084 bound_to 621 
  -27.9150   38.9431  -29.4993 H   0  0  0  0  0  0  0  0  0  0  0  0  # atno 3412 bound_to 950 
  -28.9589   38.8404  -28.2160 H   0  0  0  0  0  0  0  0  0  0  0  0  # atno 3413 bound_to 950 
  -27.9566   37.5694  -28.5728 H   0  0  0  0  0  0  0  0  0  0  0  0  # atno 3414 bound_to 950 
  -24.3287   32.2615  -19.9419 H   0  0  0  0  0  0  0  0  0  0  0  0  # atno 3476 bound_to 1244
  -20.3096   30.9162  -20.5062 H   0  0  0  0  0  0  0  0  0  0  0  0  # atno 4380 bound_to 1912
  -22.9924   31.4056  -20.3020 LP  0  0  0  0  0  0  0  0  0  0  0  0  # atno 4866 bound_to 1244
  -23.6673   32.3816  -21.4239 LP  0  0  0  0  0  0  0  0  0  0  0  0  # atno 4867 bound_to 1244
  -21.2930   38.4899  -16.0854 LP  0  0  0  0  0  0  0  0  0  0  0  0  # atno 4874 bound_to 1223
  -19.9066   31.9551  -19.3202 LP  0  0  0  0  0  0  0  0  0  0  0  0  # atno 4875 bound_to 1912
  -21.2201   30.9981  -19.1599 LP  0  0  0  0  0  0  0  0  0  0  0  0  # atno 4876 bound_to 1912
  -19.0354   28.8519  -12.9741 LP  0  0  0  0  0  0  0  0  0  0  0  0  # atno 4881 bound_to 621 
  -19.5440   27.6785  -13.9896 LP  0  0  0  0  0  0  0  0  0  0  0  0  # atno 4882 bound_to 621 

$$$$
Compound 19|Decoys_protonated|sdf|19|dock3
  -GOLD-   6122416163D 1   1.00000     0.00000

 30 30  0  0  0  0  0  0  0  0  1 V2000
  -18.4799   35.3729  -15.2091 N   0  0  0  0  0  0  0  0  0  0  0  0
  -18.8764   34.5271  -16.1539 C   0  0  0  0  0  0  0  0  0  0  0  0
  -18.6944   35.0227  -13.9453 C   0  0  0  0  0  0  0  0  0  0  0  0
  -19.4711   33.3731  -15.8810 N   0  0  0  0  0  0  0  0  0  0  0  0
  -18.6604   34.8649  -17.4785 N   0  0  0  0  0  0  0  0  0  0  0  0
  -19.2840   33.8831  -13.6052 N   0  0  0  0  0  0  0  0  0  0  0  0
  -18.2861   35.8835  -12.9417 N   0  0  0  0  0  0  0  0  0  0  0  0
  -19.6504   33.0931  -14.6001 C   0  0  0  0  0  0  0  0  0  0  0  0
  -17.7542   35.9523  -17.7734 C   0  0  0  0  0  0  0  0  0  0  0  0
  -19.0015   33.9001  -18.4999 C   0  0  0  0  0  0  0  0  0  0  0  0
  -17.3226   36.9118  -13.2655 C   0  0  0  0  0  0  0  0  0  0  0  0
  -19.1032   35.9955  -11.7541 C   0  0  0  0  0  0  0  0  0  0  0  0
  -20.2544   31.9189  -14.2353 N   0  0  0  0  0  0  0  0  0  0  0  0
  -20.9647   31.1104  -15.1812 C   0  0  0  0  0  0  0  0  0  0  0  0
  -18.0509   36.8738  -17.2596 H   0  0  0  0  0  0  0  0  0  0  0  0
  -16.7290   35.6969  -17.4825 H   0  0  0  0  0  0  0  0  0  0  0  0
  -17.7464   36.1807  -18.8448 H   0  0  0  0  0  0  0  0  0  0  0  0
  -20.0485   33.5855  -18.4225 H   0  0  0  0  0  0  0  0  0  0  0  0
  -18.3581   33.0157  -18.4330 H   0  0  0  0  0  0  0  0  0  0  0  0
  -18.8763   34.3247  -19.5021 H   0  0  0  0  0  0  0  0  0  0  0  0
  -16.4125   36.4865  -13.7040 H   0  0  0  0  0  0  0  0  0  0  0  0
  -17.7480   37.6401  -13.9650 H   0  0  0  0  0  0  0  0  0  0  0  0
  -17.0112   37.4582  -12.3685 H   0  0  0  0  0  0  0  0  0  0  0  0
  -19.2631   35.0192  -11.2825 H   0  0  0  0  0  0  0  0  0  0  0  0
  -20.0762   36.4411  -11.9894 H   0  0  0  0  0  0  0  0  0  0  0  0
  -18.6223   36.6306  -11.0020 H   0  0  0  0  0  0  0  0  0  0  0  0
  -20.1284   31.6442  -13.2748 H   0  0  0  0  0  0  0  0  0  0  0  0
  -20.3072   30.7715  -15.9886 H   0  0  0  0  0  0  0  0  0  0  0  0
  -21.8116   31.6538  -15.6134 H   0  0  0  0  0  0  0  0  0  0  0  0
  -21.3618   30.2215  -14.6812 H   0  0  0  0  0  0  0  0  0  0  0  0
  1  2  2  0  0  0  0
  1  3  1  0  0  0  0
  2  4  1  0  0  0  0
  2  5  1  0  0  0  0
  3  6  2  0  0  0  0
  3  7  1  0  0  0  0
  4  8  2  0  0  0  0
  5  9  1  0  0  0  0
  5 10  1  0  0  0  0
  6  8  1  0  0  0  0
  7 11  1  0  0  0  0
  7 12  1  0  0  0  0
  8 13  1  0  0  0  0
  9 15  1  0  0  0  0
  9 16  1  0  0  0  0
  9 17  1  0  0  0  0
 10 18  1  0  0  0  0
 10 19  1  0  0  0  0
 10 20  1  0  0  0  0
 11 21  1  0  0  0  0
 11 22  1  0  0  0  0
 11 23  1  0  0  0  0
 12 24  1  0  0  0  0
 12 25  1  0  0  0  0
 12 26  1  0  0  0  0
 13 14  1  0  0  0  0
 13 27  1  0  0  0  0
 14 28  1  0  0  0  0
 14 29  1  0  0  0  0
 14 30  1  0  0  0  0
M  END
>  <Column 1>
CNc1nc(N(C)C)nc(N(C)C)n1 ZINC000000001900

>  <Total Molweight>
196.257

>  <cLogP>
0.521

>  <cLogS>
-1.934

>  <H-Acceptors>
6

>  <H-Donors>
1

>  <Total Surface Area>
162.9

>  <MMFF94 Energy>
-254.44

> <Gold.Version>
5.8.1

> <Gold.Id.Protein>
ID|2FQT|mol2

> <Gold.PLP.Fitness>
38.9155

> <Gold.PLP.PLP>
-36.6026

> <Gold.PLP.part.hbond>
-1.2368

> <Gold.PLP.part.metal>
0.0000

> <Gold.PLP.part.buried>
-6.8805

> <Gold.PLP.part.nonpolar>
-29.1268

> <Gold.PLP.part.repulsive>
0.3493

> <Gold.PLP.ligand.clash>
0.0000

> <Gold.PLP.ligand.torsion>
0.4212

> <Gold.PLP.Chemscore.Hbond>
1.0000

> <Gold.PLP.Chemscore.CHOScore>
0.0000

> <Gold.PLP.Chemscore.Metal>
0.0000

> <Gold.Chemscore.Hbonds>
donor molecule, donor type, donor heavy atom, donor atom, acceptor molecule, acceptor atom, score
      L1  H    13    27       P1   611  1.00

> <Gold.PLP.Chemscore.Internal.Correction>
0.1554

> <Gold.Protein.RotatedTorsions>
[ 3412  950  949  948 ] final   12.09 input   60.00 | X-H torsion
[ 3476 1244 1243 1240 ] final   64.44 input   60.00 | X-H torsion
[ 2649 1223 1224 1225 ] final  -68.32 input   60.00 | X-H torsion
[ 4380 1912 1911 1909 ] final -103.60 input   60.00 | X-H torsion
[ 3084  621  620  617 ] final -116.06 input   60.00 | X-H torsion

> <Gold.Protein.ActiveResidues>
 HIS54   GLU57   HIS58   ALA61   PHE62   ILE64   ARG65   ASP75   ILE76   ILE77  
 ASP78   ILE79   SER80   PRO81   ILE118  PRO119  ALA120  ALA121  ASN122  LYS124 
 GLN125  CYS126  GLY127  CO701   VAL4    GLU5    SER6    PHE7    GLU8    LEU9   
 HIS11   ARG20   HIS21   CYS22   GLY23   VAL24   HIS25   LYS35   ARG39   MET82  
 GLY83   CYS84   TYR89  

> <Gold.Protein.RotatedAtoms>
  -21.2397   37.1921  -16.9645 H   0  0  0  0  0  0  0  0  0  0  0  0  # atno 2649 bound_to 1223
  -20.1703   38.3900  -17.3748 H   0  0  0  0  0  0  0  0  0  0  0  0  # atno 2650 bound_to 1223
  -19.2823   27.4652  -14.0482 H   0  0  0  0  0  0  0  0  0  0  0  0  # atno 3084 bound_to 621 
  -28.6696   37.9994  -28.0160 H   0  0  0  0  0  0  0  0  0  0  0  0  # atno 3412 bound_to 950 
  -27.5971   38.0190  -29.2796 H   0  0  0  0  0  0  0  0  0  0  0  0  # atno 3413 bound_to 950 
  -28.5638   39.3344  -28.9925 H   0  0  0  0  0  0  0  0  0  0  0  0  # atno 3414 bound_to 950 
  -22.9854   31.7553  -21.1435 H   0  0  0  0  0  0  0  0  0  0  0  0  # atno 3476 bound_to 1244
  -20.5222   30.7802  -20.4488 H   0  0  0  0  0  0  0  0  0  0  0  0  # atno 4380 bound_to 1912
  -24.3236   32.6289  -20.8368 LP  0  0  0  0  0  0  0  0  0  0  0  0  # atno 4866 bound_to 1244
  -23.6890   31.6681  -19.6789 LP  0  0  0  0  0  0  0  0  0  0  0  0  # atno 4867 bound_to 1244
  -21.2047   38.5991  -16.1127 LP  0  0  0  0  0  0  0  0  0  0  0  0  # atno 4874 bound_to 1223
  -19.7846   31.9165  -19.5473 LP  0  0  0  0  0  0  0  0  0  0  0  0  # atno 4875 bound_to 1912
  -21.1280   31.1736  -18.9906 LP  0  0  0  0  0  0  0  0  0  0  0  0  # atno 4876 bound_to 1912
  -17.9537   27.9502  -13.2433 LP  0  0  0  0  0  0  0  0  0  0  0  0  # atno 4881 bound_to 621 
  -19.3429   28.7993  -13.1184 LP  0  0  0  0  0  0  0  0  0  0  0  0  # atno 4882 bound_to 621 

$$$$
Compound 20|Decoys_protonated|sdf|20|dock5
  -GOLD-   6122416163D 1   1.00000     0.00000

 28 29  0  0  0  0  0  0  0  0  1 V2000
  -20.7552   34.6684  -16.8346 S   0  0  0  0  0  0  0  0  0  0  0  0
  -20.6272   35.6158  -15.7394 O   0  0  0  0  0  0  0  0  0  0  0  0
  -21.8169   34.8374  -17.8162 O   0  0  0  0  0  0  0  0  0  0  0  0
  -19.2139   34.6827  -17.7298 C   0  0  0  0  0  0  0  0  0  0  0  0
  -20.9712   33.0497  -16.1273 C   0  0  0  0  0  0  0  0  0  0  0  0
  -19.1435   33.8065  -18.7631 N   0  0  0  0  0  0  0  0  0  0  0  0
  -18.2171   35.5797  -17.3810 C   0  0  0  0  0  0  0  0  0  0  0  0
  -19.8996   32.4208  -15.4904 C   0  0  0  0  0  0  0  0  0  0  0  0
  -22.1990   32.3982  -16.2573 C   0  0  0  0  0  0  0  0  0  0  0  0
  -17.9869   33.8292  -19.4664 C   0  0  0  0  0  0  0  0  0  0  0  0
  -17.0457   35.5648  -18.1363 C   0  0  0  0  0  0  0  0  0  0  0  0
  -20.0712   31.1375  -14.9635 C   0  0  0  0  0  0  0  0  0  0  0  0
  -22.3562   31.1157  -15.7251 C   0  0  0  0  0  0  0  0  0  0  0  0
  -16.9019   34.6666  -19.1953 C   0  0  0  0  0  0  0  0  0  0  0  0
  -21.2937   30.4699  -15.0853 C   0  0  0  0  0  0  0  0  0  0  0  0
  -15.7602   34.6705  -19.9745 N   0  0  0  0  0  0  0  0  0  0  0  0
  -21.4652   29.2135  -14.5344 N   0  0  0  0  0  0  0  0  0  0  0  0
  -18.3426   36.2709  -16.5542 H   0  0  0  0  0  0  0  0  0  0  0  0
  -18.9348   32.9135  -15.3980 H   0  0  0  0  0  0  0  0  0  0  0  0
  -23.0351   32.8796  -16.7595 H   0  0  0  0  0  0  0  0  0  0  0  0
  -17.9495   33.1261  -20.2944 H   0  0  0  0  0  0  0  0  0  0  0  0
  -16.2470   36.2603  -17.8923 H   0  0  0  0  0  0  0  0  0  0  0  0
  -19.2358   30.6584  -14.4591 H   0  0  0  0  0  0  0  0  0  0  0  0
  -23.3198   30.6214  -15.8182 H   0  0  0  0  0  0  0  0  0  0  0  0
  -15.6841   34.0550  -20.7737 H   0  0  0  0  0  0  0  0  0  0  0  0
  -15.0761   35.4103  -19.8833 H   0  0  0  0  0  0  0  0  0  0  0  0
  -20.7075   28.7656  -14.0379 H   0  0  0  0  0  0  0  0  0  0  0  0
  -22.3865   28.8026  -14.4731 H   0  0  0  0  0  0  0  0  0  0  0  0
  1  2  2  0  0  0  0
  1  3  2  0  0  0  0
  1  4  1  0  0  0  0
  1  5  1  0  0  0  0
  4  6  2  0  0  0  0
  4  7  1  0  0  0  0
  5  8  2  0  0  0  0
  5  9  1  0  0  0  0
  6 10  1  0  0  0  0
  7 11  2  0  0  0  0
  7 18  1  0  0  0  0
  8 12  1  0  0  0  0
  8 19  1  0  0  0  0
  9 13  2  0  0  0  0
  9 20  1  0  0  0  0
 10 14  2  0  0  0  0
 10 21  1  0  0  0  0
 11 14  1  0  0  0  0
 11 22  1  0  0  0  0
 12 15  2  0  0  0  0
 12 23  1  0  0  0  0
 13 15  1  0  0  0  0
 13 24  1  0  0  0  0
 14 16  1  0  0  0  0
 15 17  1  0  0  0  0
 16 25  1  0  0  0  0
 16 26  1  0  0  0  0
 17 27  1  0  0  0  0
 17 28  1  0  0  0  0
M  END
>  <Column 1>
Nc1ccc(S(=O)(=O)c2ccc(N)cn2)cc1 ZINC000000002008

>  <Total Molweight>
249.293

>  <cLogP>
0.1067

>  <cLogS>
-2.272

>  <H-Acceptors>
5

>  <H-Donors>
2

>  <Total Surface Area>
177.4

>  <MMFF94 Energy>
134.99

> <Gold.Version>
5.8.1

> <Gold.Id.Protein>
ID|2FQT|mol2

> <Gold.PLP.Fitness>
56.5770

> <Gold.PLP.PLP>
-42.1604

> <Gold.PLP.part.hbond>
-6.5230

> <Gold.PLP.part.metal>
0.0000

> <Gold.PLP.part.buried>
-1.6818

> <Gold.PLP.part.nonpolar>
-36.2139

> <Gold.PLP.part.repulsive>
0.2687

> <Gold.PLP.ligand.clash>
0.0000

> <Gold.PLP.ligand.torsion>
2.1918

> <Gold.PLP.Chemscore.Hbond>
4.4148

> <Gold.PLP.Chemscore.CHOScore>
0.4908

> <Gold.PLP.Chemscore.Metal>
0.0000

> <Gold.Chemscore.Hbonds>
donor molecule, donor type, donor heavy atom, donor atom, acceptor molecule, acceptor atom, score
      L1  H    17    27       P1   621  0.93
      L1  H    17    28       P1   427  1.00
      P1  H  1223  2649       L1     2  0.74
      P1  H  1912  4380       L1     6  0.99
      P1  H  1239  3336       L1     3  0.76
      L1  C    10    21       P1  1237  0.49

> <Gold.PLP.Chemscore.Internal.Correction>
4.0835

> <Gold.Protein.RotatedTorsions>
[ 3412  950  949  948 ] final -154.77 input   60.00 | X-H torsion
[ 3476 1244 1243 1240 ] final  -37.60 input   60.00 | X-H torsion
[ 2649 1223 1224 1225 ] final  -92.35 input   60.00 | X-H torsion
[ 4380 1912 1911 1909 ] final  107.36 input   60.00 | X-H torsion
[ 3084  621  620  617 ] final  166.05 input   60.00 | X-H torsion

> <Gold.Protein.ActiveResidues>
 HIS54   GLU57   HIS58   ALA61   PHE62   ILE64   ARG65   ASP75   ILE76   ILE77  
 ASP78   ILE79   SER80   PRO81   ILE118  PRO119  ALA120  ALA121  ASN122  LYS124 
 GLN125  CYS126  GLY127  CO701   VAL4    GLU5    SER6    PHE7    GLU8    LEU9   
 HIS11   ARG20   HIS21   CYS22   GLY23   VAL24   HIS25   LYS35   ARG39   MET82  
 GLY83   CYS84   TYR89  

> <Gold.Protein.RotatedAtoms>
  -21.4515   37.3181  -16.6514 H   0  0  0  0  0  0  0  0  0  0  0  0  # atno 2649 bound_to 1223
  -20.2390   38.0293  -17.5296 H   0  0  0  0  0  0  0  0  0  0  0  0  # atno 2650 bound_to 1223
  -18.1706   27.4665  -13.6614 H   0  0  0  0  0  0  0  0  0  0  0  0  # atno 3084 bound_to 621 
  -28.0212   39.0633  -29.4522 H   0  0  0  0  0  0  0  0  0  0  0  0  # atno 3412 bound_to 950 
  -28.9527   38.6963  -28.1312 H   0  0  0  0  0  0  0  0  0  0  0  0  # atno 3413 bound_to 950 
  -27.8566   37.5932  -28.7047 H   0  0  0  0  0  0  0  0  0  0  0  0  # atno 3414 bound_to 950 
  -24.1608   32.6115  -21.0802 H   0  0  0  0  0  0  0  0  0  0  0  0  # atno 3476 bound_to 1244
  -20.0429   31.9422  -19.1541 H   0  0  0  0  0  0  0  0  0  0  0  0  # atno 4380 bound_to 1912
  -23.9266   31.8411  -19.6661 LP  0  0  0  0  0  0  0  0  0  0  0  0  # atno 4866 bound_to 1244
  -22.9022   31.5936  -20.9135 LP  0  0  0  0  0  0  0  0  0  0  0  0  # atno 4867 bound_to 1244
  -20.9284   38.8303  -16.2687 LP  0  0  0  0  0  0  0  0  0  0  0  0  # atno 4874 bound_to 1223
  -21.2536   30.8692  -19.3298 LP  0  0  0  0  0  0  0  0  0  0  0  0  # atno 4875 bound_to 1912
  -20.1417   31.0508  -20.5119 LP  0  0  0  0  0  0  0  0  0  0  0  0  # atno 4876 bound_to 1912
  -18.7032   28.8001  -12.8958 LP  0  0  0  0  0  0  0  0  0  0  0  0  # atno 4881 bound_to 621 
  -19.7129   27.9480  -13.8555 LP  0  0  0  0  0  0  0  0  0  0  0  0  # atno 4882 bound_to 621 

$$$$
Compound 21|Decoys_protonated|sdf|21|dock10
  -GOLD-   6122416163D 1   1.00000     0.00000

 14 14  0  0  0  0  0  0  0  0  1 V2000
  -26.4989   29.4138  -17.1971 O   0  0  0  0  0  0  0  0  0  0  0  0
  -25.5304   29.3270  -18.1540 C   0  0  0  0  0  0  0  0  0  0  0  0
  -25.9344   29.1913  -19.4772 C   0  0  0  0  0  0  0  0  0  0  0  0
  -24.1787   29.3726  -17.8207 C   0  0  0  0  0  0  0  0  0  0  0  0
  -24.9709   29.1004  -20.4752 C   0  0  0  0  0  0  0  0  0  0  0  0
  -23.2188   29.2806  -18.8313 C   0  0  0  0  0  0  0  0  0  0  0  0
  -25.3980   28.9679  -21.7639 O   0  0  0  0  0  0  0  0  0  0  0  0
  -23.6138   29.1439  -20.1640 C   0  0  0  0  0  0  0  0  0  0  0  0
  -26.1739   28.9903  -16.3863 H   0  0  0  0  0  0  0  0  0  0  0  0
  -26.9897   29.1566  -19.7282 H   0  0  0  0  0  0  0  0  0  0  0  0
  -23.8567   29.4786  -16.7897 H   0  0  0  0  0  0  0  0  0  0  0  0
  -22.1618   29.3153  -18.5799 H   0  0  0  0  0  0  0  0  0  0  0  0
  -25.3618   29.8372  -22.1945 H   0  0  0  0  0  0  0  0  0  0  0  0
  -22.8565   29.0735  -20.9384 H   0  0  0  0  0  0  0  0  0  0  0  0
  1  2  1  0  0  0  0
  1  9  1  0  0  0  0
  2  3  2  0  0  0  0
  2  4  1  0  0  0  0
  3  5  1  0  0  0  0
  3 10  1  0  0  0  0
  4  6  2  0  0  0  0
  4 11  1  0  0  0  0
  5  7  1  0  0  0  0
  5  8  2  0  0  0  0
  6  8  1  0  0  0  0
  6 12  1  0  0  0  0
  7 13  1  0  0  0  0
  8 14  1  0  0  0  0
M  END
>  <Column 1>
Oc1cccc(O)c1 ZINC000000002028

>  <Total Molweight>
110.112

>  <cLogP>
0.9682

>  <cLogS>
-1.024

>  <H-Acceptors>
2

>  <H-Donors>
2

>  <Total Surface Area>
85.96

>  <MMFF94 Energy>
-3.9017

> <Gold.Version>
5.8.1

> <Gold.Id.Protein>
ID|2FQT|mol2

> <Gold.PLP.Fitness>
39.0539

> <Gold.PLP.PLP>
-24.4152

> <Gold.PLP.part.hbond>
-4.0329

> <Gold.PLP.part.metal>
-1.0000

> <Gold.PLP.part.buried>
0.6580

> <Gold.PLP.part.nonpolar>
-20.7624

> <Gold.PLP.part.repulsive>
0.0000

> <Gold.PLP.ligand.clash>
0.0000

> <Gold.PLP.ligand.torsion>
0.0000

> <Gold.PLP.Chemscore.Hbond>
2.8800

> <Gold.PLP.Chemscore.CHOScore>
0.0000

> <Gold.PLP.Chemscore.Metal>
0.9998

> <Gold.Chemscore.Hbonds>
donor molecule, donor type, donor heavy atom, donor atom, acceptor molecule, acceptor atom, score
      L1  H     1     9       P1   426  1.00
      L1  H     7    13       P1  1290  0.88
      P1  H  1504  3991       L1     7  1.00
      P1  M  1222  1222       L1     1  1.00

> <Gold.PLP.Chemscore.Internal.Correction>
0.0000

> <Gold.Protein.RotatedTorsions>
[ 3412  950  949  948 ] final    1.04 input   60.00 | X-H torsion
[ 3476 1244 1243 1240 ] final   43.97 input   60.00 | X-H torsion
[ 2649 1223 1224 1225 ] final   77.15 input   60.00 | X-H torsion
[ 4380 1912 1911 1909 ] final  155.19 input   60.00 | X-H torsion
[ 3084  621  620  617 ] final  -84.97 input   60.00 | X-H torsion

> <Gold.Protein.ActiveResidues>
 HIS54   GLU57   HIS58   ALA61   PHE62   ILE64   ARG65   ASP75   ILE76   ILE77  
 ASP78   ILE79   SER80   PRO81   ILE118  PRO119  ALA120  ALA121  ASN122  LYS124 
 GLN125  CYS126  GLY127  CO701   VAL4    GLU5    SER6    PHE7    GLU8    LEU9   
 HIS11   ARG20   HIS21   CYS22   GLY23   VAL24   HIS25   LYS35   ARG39   MET82  
 GLY83   CYS84   TYR89  

> <Gold.Protein.RotatedAtoms>
  -20.2302   38.7090  -17.1054 H   0  0  0  0  0  0  0  0  0  0  0  0  # atno 2649 bound_to 1223
  -21.4393   38.2552  -16.0665 H   0  0  0  0  0  0  0  0  0  0  0  0  # atno 2650 bound_to 1223
  -19.6330   27.8033  -13.9282 H   0  0  0  0  0  0  0  0  0  0  0  0  # atno 3084 bound_to 621 
  -28.7693   38.1533  -27.9980 H   0  0  0  0  0  0  0  0  0  0  0  0  # atno 3412 bound_to 950 
  -27.6214   37.8792  -29.1619 H   0  0  0  0  0  0  0  0  0  0  0  0  # atno 3413 bound_to 950 
  -28.4398   39.3202  -29.1281 H   0  0  0  0  0  0  0  0  0  0  0  0  # atno 3414 bound_to 950 
  -23.1555   31.9646  -21.3385 H   0  0  0  0  0  0  0  0  0  0  0  0  # atno 3476 bound_to 1244
  -19.7133   31.8042  -19.8239 H   0  0  0  0  0  0  0  0  0  0  0  0  # atno 4380 bound_to 1912
  -24.4248   32.5733  -20.5222 LP  0  0  0  0  0  0  0  0  0  0  0  0  # atno 4866 bound_to 1244
  -23.4165   31.5129  -19.7971 LP  0  0  0  0  0  0  0  0  0  0  0  0  # atno 4867 bound_to 1244
  -20.9491   37.2375  -17.2628 LP  0  0  0  0  0  0  0  0  0  0  0  0  # atno 4874 bound_to 1223
  -20.9559   31.3915  -18.8577 LP  0  0  0  0  0  0  0  0  0  0  0  0  # atno 4875 bound_to 1912
  -20.7714   30.6674  -20.3096 LP  0  0  0  0  0  0  0  0  0  0  0  0  # atno 4876 bound_to 1912
  -18.0665   27.5688  -13.5551 LP  0  0  0  0  0  0  0  0  0  0  0  0  # atno 4881 bound_to 621 
  -18.8769   28.8401  -12.9275 LP  0  0  0  0  0  0  0  0  0  0  0  0  # atno 4882 bound_to 621 

$$$$
Compound 22|Decoys_protonated|sdf|22|dock1
  -GOLD-   6122416163D 1   1.00000     0.00000

 20 22  0  0  0  0  0  0  0  0  1 V2000
  -20.3643   35.7013  -17.6149 N   0  0  0  0  0  0  0  0  0  0  0  0
  -19.1502   36.1786  -18.0114 N   0  0  0  0  0  0  0  0  0  0  0  0
  -20.4764   34.4659  -17.0841 C   0  0  0  0  0  0  0  0  0  0  0  0
  -18.0741   35.3938  -17.8616 C   0  0  0  0  0  0  0  0  0  0  0  0
  -19.3055   33.7096  -16.9616 C   0  0  0  0  0  0  0  0  0  0  0  0
  -21.7103   33.9331  -16.6614 C   0  0  0  0  0  0  0  0  0  0  0  0
  -18.0929   34.1593  -17.3464 N   0  0  0  0  0  0  0  0  0  0  0  0
  -19.4512   32.4515  -16.4160 C   0  0  0  0  0  0  0  0  0  0  0  0
  -21.7271   32.6345  -16.1199 C   0  0  0  0  0  0  0  0  0  0  0  0
  -22.9235   34.6522  -16.7616 C   0  0  0  0  0  0  0  0  0  0  0  0
  -20.6159   31.9005  -15.9971 N   0  0  0  0  0  0  0  0  0  0  0  0
  -22.9375   32.0983  -15.6998 C   0  0  0  0  0  0  0  0  0  0  0  0
  -24.1268   34.0945  -16.3336 C   0  0  0  0  0  0  0  0  0  0  0  0
  -24.1336   32.8127  -15.8008 C   0  0  0  0  0  0  0  0  0  0  0  0
  -17.1211   35.7936  -18.1834 H   0  0  0  0  0  0  0  0  0  0  0  0
  -18.5797   31.8126  -16.2934 H   0  0  0  0  0  0  0  0  0  0  0  0
  -22.9303   35.6591  -17.1783 H   0  0  0  0  0  0  0  0  0  0  0  0
  -22.9503   31.0941  -15.2811 H   0  0  0  0  0  0  0  0  0  0  0  0
  -25.0517   34.6597  -16.4171 H   0  0  0  0  0  0  0  0  0  0  0  0
  -25.0644   32.3642  -15.4626 H   0  0  0  0  0  0  0  0  0  0  0  0
  1  2  2  0  0  0  0
  1  3  1  0  0  0  0
  2  4  1  0  0  0  0
  3  5  1  0  0  0  0
  3  6  2  0  0  0  0
  4  7  2  0  0  0  0
  4 15  1  0  0  0  0
  5  8  2  0  0  0  0
  5  7  1  0  0  0  0
  6  9  1  0  0  0  0
  6 10  1  0  0  0  0
  8 11  1  0  0  0  0
  8 16  1  0  0  0  0
  9 12  1  0  0  0  0
  9 11  2  0  0  0  0
 10 13  2  0  0  0  0
 10 17  1  0  0  0  0
 12 14  2  0  0  0  0
 12 18  1  0  0  0  0
 13 14  1  0  0  0  0
 13 19  1  0  0  0  0
 14 20  1  0  0  0  0
M  END
>  <Column 1>
c1ccc2c(c1)ncc1ncnnc12 ZINC000000002080

>  <Total Molweight>
182.186

>  <cLogP>
1.0229

>  <cLogS>
-2.263

>  <H-Acceptors>
4

>  <H-Donors>
0

>  <Total Surface Area>
137.5

>  <MMFF94 Energy>
78.387

> <Gold.Version>
5.8.1

> <Gold.Id.Protein>
ID|2FQT|mol2

> <Gold.PLP.Fitness>
43.9651

> <Gold.PLP.PLP>
-32.9732

> <Gold.PLP.part.hbond>
-5.3738

> <Gold.PLP.part.metal>
0.0000

> <Gold.PLP.part.buried>
-3.5790

> <Gold.PLP.part.nonpolar>
-24.4648

> <Gold.PLP.part.repulsive>
0.1920

> <Gold.PLP.ligand.clash>
0.0000

> <Gold.PLP.ligand.torsion>
0.0000

> <Gold.PLP.Chemscore.Hbond>
2.6640

> <Gold.PLP.Chemscore.CHOScore>
1.0000

> <Gold.PLP.Chemscore.Metal>
0.0000

> <Gold.Chemscore.Hbonds>
donor molecule, donor type, donor heavy atom, donor atom, acceptor molecule, acceptor atom, score
      P1  H  1223  2649       L1     1  1.00
      P1  H  1230  2756       L1     2  0.37
      P1  H  1239  3336       L1     1  0.41
      P1  H  1466  3954       L1     7  0.88
      L1  C     8    16       P1   606  1.00

> <Gold.PLP.Chemscore.Internal.Correction>
0.0000

> <Gold.Protein.RotatedTorsions>
[ 3412  950  949  948 ] final   49.70 input   60.00 | X-H torsion
[ 3476 1244 1243 1240 ] final  101.60 input   60.00 | X-H torsion
[ 2649 1223 1224 1225 ] final  -56.40 input   60.00 | X-H torsion
[ 4380 1912 1911 1909 ] final  -40.45 input   60.00 | X-H torsion
[ 3084  621  620  617 ] final   49.28 input   60.00 | X-H torsion

> <Gold.Protein.ActiveResidues>
 HIS54   GLU57   HIS58   ALA61   PHE62   ILE64   ARG65   ASP75   ILE76   ILE77  
 ASP78   ILE79   SER80   PRO81   ILE118  PRO119  ALA120  ALA121  ASN122  LYS124 
 GLN125  CYS126  GLY127  CO701   VAL4    GLU5    SER6    PHE7    GLU8    LEU9   
 HIS11   ARG20   HIS21   CYS22   GLY23   VAL24   HIS25   LYS35   ARG39   MET82  
 GLY83   CYS84   TYR89  

> <Gold.Protein.RotatedAtoms>
  -21.1082   37.1852  -17.1134 H   0  0  0  0  0  0  0  0  0  0  0  0  # atno 2649 bound_to 1223
  -20.1815   38.5515  -17.2595 H   0  0  0  0  0  0  0  0  0  0  0  0  # atno 2650 bound_to 1223
  -18.6552   28.7769  -12.8928 H   0  0  0  0  0  0  0  0  0  0  0  0  # atno 3084 bound_to 621 
  -28.2473   37.6298  -28.2723 H   0  0  0  0  0  0  0  0  0  0  0  0  # atno 3412 bound_to 950 
  -27.7011   38.5792  -29.5163 H   0  0  0  0  0  0  0  0  0  0  0  0  # atno 3413 bound_to 950 
  -28.8821   39.1439  -28.4996 H   0  0  0  0  0  0  0  0  0  0  0  0  # atno 3414 bound_to 950 
  -22.9033   31.4760  -20.6229 H   0  0  0  0  0  0  0  0  0  0  0  0  # atno 3476 bound_to 1244
  -21.1849   30.6786  -19.7334 H   0  0  0  0  0  0  0  0  0  0  0  0  # atno 4380 bound_to 1912
  -23.9432   32.5336  -21.2920 LP  0  0  0  0  0  0  0  0  0  0  0  0  # atno 4866 bound_to 1244
  -24.1520   32.0447  -19.7480 LP  0  0  0  0  0  0  0  0  0  0  0  0  # atno 4867 bound_to 1244
  -21.3233   38.4469  -16.0796 LP  0  0  0  0  0  0  0  0  0  0  0  0  # atno 4874 bound_to 1223
  -19.8541   31.3691  -20.3660 LP  0  0  0  0  0  0  0  0  0  0  0  0  # atno 4875 bound_to 1912
  -20.3912   31.8235  -18.8924 LP  0  0  0  0  0  0  0  0  0  0  0  0  # atno 4876 bound_to 1912
  -19.7291   27.9917  -13.8299 LP  0  0  0  0  0  0  0  0  0  0  0  0  # atno 4881 bound_to 621 
  -18.1991   27.4368  -13.6955 LP  0  0  0  0  0  0  0  0  0  0  0  0  # atno 4882 bound_to 621 

$$$$
Compound 23|Decoys_protonated|sdf|23|dock3
  -GOLD-   6122416163D 1   1.00000     0.00000

 19 19  0  0  0  0  0  0  0  0  1 V2000
  -25.7170   30.2528  -18.4633 S   0  0  0  0  0  0  0  0  0  0  0  0
  -24.9681   29.6387  -19.5348 O   0  0  0  0  0  0  0  0  0  0  0  0
  -26.7199   31.2648  -18.7010 O   0  0  0  0  0  0  0  0  0  0  0  0
  -26.5072   28.9979  -17.6761 N   0  0  0  0  0  0  0  0  0  0  0  0
  -24.5982   30.8198  -17.2181 C   0  0  0  0  0  0  0  0  0  0  0  0
  -23.3302   30.2460  -17.1131 C   0  0  0  0  0  0  0  0  0  0  0  0
  -25.0042   31.8084  -16.3204 C   0  0  0  0  0  0  0  0  0  0  0  0
  -22.4592   30.6815  -16.1102 C   0  0  0  0  0  0  0  0  0  0  0  0
  -24.1232   32.2347  -15.3224 C   0  0  0  0  0  0  0  0  0  0  0  0
  -22.8500   31.6693  -15.2010 C   0  0  0  0  0  0  0  0  0  0  0  0
  -21.9731   32.1167  -14.2308 N   0  0  0  0  0  0  0  0  0  0  0  0
  -27.5162   29.1064  -17.7789 H   0  0  0  0  0  0  0  0  0  0  0  0
  -26.1932   28.9455  -16.7068 H   0  0  0  0  0  0  0  0  0  0  0  0
  -23.0113   29.4672  -17.8018 H   0  0  0  0  0  0  0  0  0  0  0  0
  -25.9946   32.2517  -16.3893 H   0  0  0  0  0  0  0  0  0  0  0  0
  -21.4693   30.2376  -16.0416 H   0  0  0  0  0  0  0  0  0  0  0  0
  -24.4428   33.0128  -14.6339 H   0  0  0  0  0  0  0  0  0  0  0  0
  -21.0396   31.7346  -14.1681 H   0  0  0  0  0  0  0  0  0  0  0  0
  -22.1917   32.9360  -13.6807 H   0  0  0  0  0  0  0  0  0  0  0  0
  1  2  2  0  0  0  0
  1  3  2  0  0  0  0
  1  4  1  0  0  0  0
  1  5  1  0  0  0  0
  4 12  1  0  0  0  0
  4 13  1  0  0  0  0
  5  6  2  0  0  0  0
  5  7  1  0  0  0  0
  6  8  1  0  0  0  0
  6 14  1  0  0  0  0
  7  9  2  0  0  0  0
  7 15  1  0  0  0  0
  8 10  2  0  0  0  0
  8 16  1  0  0  0  0
  9 10  1  0  0  0  0
  9 17  1  0  0  0  0
 10 11  1  0  0  0  0
 11 18  1  0  0  0  0
 11 19  1  0  0  0  0
M  END
>  <Column 1>
Nc1ccc(S(N)(=O)=O)cc1 ZINC000000002101

>  <Total Molweight>
172.208

>  <cLogP>
-0.2537

>  <cLogS>
-1.591

>  <H-Acceptors>
4

>  <H-Donors>
2

>  <Total Surface Area>
118.88

>  <MMFF94 Energy>
-67.486

> <Gold.Version>
5.8.1

> <Gold.Id.Protein>
ID|2FQT|mol2

> <Gold.PLP.Fitness>
48.5776

> <Gold.PLP.PLP>
-32.1812

> <Gold.PLP.part.hbond>
-2.3028

> <Gold.PLP.part.metal>
-2.0000

> <Gold.PLP.part.buried>
-4.1163

> <Gold.PLP.part.nonpolar>
-24.5551

> <Gold.PLP.part.repulsive>
0.1070

> <Gold.PLP.ligand.clash>
0.0000

> <Gold.PLP.ligand.torsion>
0.9568

> <Gold.PLP.Chemscore.Hbond>
1.4659

> <Gold.PLP.Chemscore.CHOScore>
0.0000

> <Gold.PLP.Chemscore.Metal>
1.9998

> <Gold.Chemscore.Hbonds>
donor molecule, donor type, donor heavy atom, donor atom, acceptor molecule, acceptor atom, score
      L1  H     4    12       P1   403  0.47
      L1  H     4    13       P1   426  1.00
      P1  M  1222  1222       L1     3  1.00
      P1  M  1222  1222       L1     4  1.00

> <Gold.PLP.Chemscore.Internal.Correction>
1.9135

> <Gold.Protein.RotatedTorsions>
[ 3412  950  949  948 ] final  -59.86 input   60.00 | X-H torsion
[ 3476 1244 1243 1240 ] final -111.95 input   60.00 | X-H torsion
[ 2649 1223 1224 1225 ] final  -21.99 input   60.00 | X-H torsion
[ 4380 1912 1911 1909 ] final  -46.54 input   60.00 | X-H torsion
[ 3084  621  620  617 ] final  106.92 input   60.00 | X-H torsion

> <Gold.Protein.ActiveResidues>
 HIS54   GLU57   HIS58   ALA61   PHE62   ILE64   ARG65   ASP75   ILE76   ILE77  
 ASP78   ILE79   SER80   PRO81   ILE118  PRO119  ALA120  ALA121  ASN122  LYS124 
 GLN125  CYS126  GLY127  CO701   VAL4    GLU5    SER6    PHE7    GLU8    LEU9   
 HIS11   ARG20   HIS21   CYS22   GLY23   VAL24   HIS25   LYS35   ARG39   MET82  
 GLY83   CYS84   TYR89  

> <Gold.Protein.RotatedAtoms>
  -20.6933   37.3716  -17.4503 H   0  0  0  0  0  0  0  0  0  0  0  0  # atno 2649 bound_to 1223
  -20.3735   38.8788  -16.8395 H   0  0  0  0  0  0  0  0  0  0  0  0  # atno 2650 bound_to 1223
  -18.0099   28.1794  -13.0960 H   0  0  0  0  0  0  0  0  0  0  0  0  # atno 3084 bound_to 621 
  -28.9292   39.0331  -28.3738 H   0  0  0  0  0  0  0  0  0  0  0  0  # atno 3412 bound_to 950 
  -28.1243   37.5842  -28.3867 H   0  0  0  0  0  0  0  0  0  0  0  0  # atno 3413 bound_to 950 
  -27.7771   38.7354  -29.5275 H   0  0  0  0  0  0  0  0  0  0  0  0  # atno 3414 bound_to 950 
  -24.3632   32.3148  -20.0074 H   0  0  0  0  0  0  0  0  0  0  0  0  # atno 3476 bound_to 1244
  -21.1482   30.6544  -19.8226 H   0  0  0  0  0  0  0  0  0  0  0  0  # atno 4380 bound_to 1912
  -23.0331   31.4017  -20.2197 LP  0  0  0  0  0  0  0  0  0  0  0  0  # atno 4866 bound_to 1244
  -23.5919   32.3318  -21.4402 LP  0  0  0  0  0  0  0  0  0  0  0  0  # atno 4867 bound_to 1244
  -21.5429   37.9407  -16.1615 LP  0  0  0  0  0  0  0  0  0  0  0  0  # atno 4874 bound_to 1223
  -19.8086   31.4388  -20.3105 LP  0  0  0  0  0  0  0  0  0  0  0  0  # atno 4875 bound_to 1912
  -20.4735   31.7780  -18.8581 LP  0  0  0  0  0  0  0  0  0  0  0  0  # atno 4876 bound_to 1912
  -19.5468   28.6849  -13.2710 LP  0  0  0  0  0  0  0  0  0  0  0  0  # atno 4881 bound_to 621 
  -19.0312   27.3454  -14.0497 LP  0  0  0  0  0  0  0  0  0  0  0  0  # atno 4882 bound_to 621 

$$$$
Compound 24|Decoys_protonated|sdf|24|dock2
  -GOLD-   6122416163D 1   1.00000     0.00000

 32 33  0  0  0  0  0  0  0  0  1 V2000
  -20.8501   34.0914  -16.7866 S   0  0  0  0  0  0  0  0  0  0  0  0
  -20.5661   33.7972  -18.1749 O   0  0  0  0  0  0  0  0  0  0  0  0
  -21.6940   35.2077  -16.4111 O   0  0  0  0  0  0  0  0  0  0  0  0
  -21.4515   32.6786  -16.0307 N   0  0  0  0  0  0  0  0  0  0  0  0
  -19.2978   34.2410  -15.9223 C   0  0  0  0  0  0  0  0  0  0  0  0
  -22.5641   32.0727  -16.7080 C   0  0  0  0  0  0  0  0  0  0  0  0
  -21.5844   32.7817  -14.5558 C   0  0  0  0  0  0  0  0  0  0  0  0
  -19.4989   34.2355  -14.4131 C   0  0  0  0  0  0  0  0  0  0  0  0
  -22.4172   30.7576  -17.1558 C   0  0  0  0  0  0  0  0  0  0  0  0
  -23.7840   32.7380  -16.8684 C   0  0  0  0  0  0  0  0  0  0  0  0
  -20.2031   32.9674  -13.9283 C   0  0  0  0  0  0  0  0  0  0  0  0
  -23.4801   30.1103  -17.7887 C   0  0  0  0  0  0  0  0  0  0  0  0
  -24.8510   32.0963  -17.5006 C   0  0  0  0  0  0  0  0  0  0  0  0
  -24.6893   30.7884  -17.9684 C   0  0  0  0  0  0  0  0  0  0  0  0
  -26.0500   29.9639  -18.7426 S   0  0  0  0  0  0  0  0  0  0  0  0
  -25.5461   29.0823  -19.7695 O   0  0  0  0  0  0  0  0  0  0  0  0
  -27.1032   30.9201  -18.9933 O   0  0  0  0  0  0  0  0  0  0  0  0
  -26.6051   28.9744  -17.5080 N   0  0  0  0  0  0  0  0  0  0  0  0
  -18.6605   33.4101  -16.2421 H   0  0  0  0  0  0  0  0  0  0  0  0
  -18.8357   35.1776  -16.2485 H   0  0  0  0  0  0  0  0  0  0  0  0
  -22.0223   31.8571  -14.1601 H   0  0  0  0  0  0  0  0  0  0  0  0
  -22.2560   33.6035  -14.2818 H   0  0  0  0  0  0  0  0  0  0  0  0
  -18.5237   34.3178  -13.9197 H   0  0  0  0  0  0  0  0  0  0  0  0
  -20.0844   35.1123  -14.1109 H   0  0  0  0  0  0  0  0  0  0  0  0
  -21.4721   30.2385  -17.0202 H   0  0  0  0  0  0  0  0  0  0  0  0
  -23.9116   33.7568  -16.5104 H   0  0  0  0  0  0  0  0  0  0  0  0
  -19.5756   32.0964  -14.1558 H   0  0  0  0  0  0  0  0  0  0  0  0
  -20.3076   33.0101  -12.8380 H   0  0  0  0  0  0  0  0  0  0  0  0
  -23.3568   29.0877  -18.1380 H   0  0  0  0  0  0  0  0  0  0  0  0
  -25.7962   32.6199  -17.6255 H   0  0  0  0  0  0  0  0  0  0  0  0
  -27.6063   28.8095  -17.6127 H   0  0  0  0  0  0  0  0  0  0  0  0
  -26.3404   29.3607  -16.6020 H   0  0  0  0  0  0  0  0  0  0  0  0
  1  2  2  0  0  0  0
  1  3  2  0  0  0  0
  1  4  1  0  0  0  0
  1  5  1  0  0  0  0
  4  6  1  0  0  0  0
  4  7  1  0  0  0  0
  5  8  1  0  0  0  0
  5 19  1  0  0  0  0
  5 20  1  0  0  0  0
  6  9  2  0  0  0  0
  6 10  1  0  0  0  0
  7 11  1  0  0  0  0
  7 21  1  0  0  0  0
  7 22  1  0  0  0  0
  8 11  1  0  0  0  0
  8 23  1  0  0  0  0
  8 24  1  0  0  0  0
  9 12  1  0  0  0  0
  9 25  1  0  0  0  0
 10 13  2  0  0  0  0
 10 26  1  0  0  0  0
 11 27  1  0  0  0  0
 11 28  1  0  0  0  0
 12 14  2  0  0  0  0
 12 29  1  0  0  0  0
 13 14  1  0  0  0  0
 13 30  1  0  0  0  0
 14 15  1  0  0  0  0
 15 16  2  0  0  0  0
 15 17  2  0  0  0  0
 15 18  1  0  0  0  0
 18 31  1  0  0  0  0
 18 32  1  0  0  0  0
M  END
>  <Column 1>
NS(=O)(=O)c1ccc(N2CCCCS2(=O)=O)cc1 ZINC000000002119

>  <Total Molweight>
290.363

>  <cLogP>
-0.4114

>  <cLogS>
-3.33

>  <H-Acceptors>
6

>  <H-Donors>
1

>  <Total Surface Area>
190.78

>  <MMFF94 Energy>
-93.378

> <Gold.Version>
5.8.1

> <Gold.Id.Protein>
ID|2FQT|mol2

> <Gold.PLP.Fitness>
54.5030

> <Gold.PLP.PLP>
-30.0745

> <Gold.PLP.part.hbond>
-3.9101

> <Gold.PLP.part.metal>
-1.8198

> <Gold.PLP.part.buried>
4.1555

> <Gold.PLP.part.nonpolar>
-28.8136

> <Gold.PLP.part.repulsive>
0.1606

> <Gold.PLP.ligand.clash>
0.0000

> <Gold.PLP.ligand.torsion>
1.1561

> <Gold.PLP.Chemscore.Hbond>
4.1910

> <Gold.PLP.Chemscore.CHOScore>
0.0000

> <Gold.PLP.Chemscore.Metal>
2.0000

> <Gold.Chemscore.Hbonds>
donor molecule, donor type, donor heavy atom, donor atom, acceptor molecule, acceptor atom, score
      L1  H    18    31       P1   403  1.00
      L1  H    18    32       P1   426  0.80
      P1  H  1223  2650       L1     3  1.00
      P1  H  1912  4380       L1     2  1.00
      P1  H  1239  3336       L1     2  0.39
      P1  M  1222  1222       L1    17  1.00
      P1  M  1222  1222       L1    18  1.00

> <Gold.PLP.Chemscore.Internal.Correction>
2.1675

> <Gold.Protein.RotatedTorsions>
[ 3412  950  949  948 ] final  160.50 input   60.00 | X-H torsion
[ 3476 1244 1243 1240 ] final -111.44 input   60.00 | X-H torsion
[ 2649 1223 1224 1225 ] final  163.90 input   60.00 | X-H torsion
[ 4380 1912 1911 1909 ] final   89.84 input   60.00 | X-H torsion
[ 3084  621  620  617 ] final   24.13 input   60.00 | X-H torsion

> <Gold.Protein.ActiveResidues>
 HIS54   GLU57   HIS58   ALA61   PHE62   ILE64   ARG65   ASP75   ILE76   ILE77  
 ASP78   ILE79   SER80   PRO81   ILE118  PRO119  ALA120  ALA121  ASN122  LYS124 
 GLN125  CYS126  GLY127  CO701   VAL4    GLU5    SER6    PHE7    GLU8    LEU9   
 HIS11   ARG20   HIS21   CYS22   GLY23   VAL24   HIS25   LYS35   ARG39   MET82  
 GLY83   CYS84   TYR89  

> <Gold.Protein.RotatedAtoms>
  -21.1196   38.6939  -16.1377 H   0  0  0  0  0  0  0  0  0  0  0  0  # atno 2649 bound_to 1223
  -21.3174   37.2169  -16.8633 H   0  0  0  0  0  0  0  0  0  0  0  0  # atno 2650 bound_to 1223
  -19.0475   28.8450  -12.9803 H   0  0  0  0  0  0  0  0  0  0  0  0  # atno 3084 bound_to 621 
  -27.6499   38.4377  -29.4855 H   0  0  0  0  0  0  0  0  0  0  0  0  # atno 3412 bound_to 950 
  -28.8239   39.2227  -28.6178 H   0  0  0  0  0  0  0  0  0  0  0  0  # atno 3413 bound_to 950 
  -28.3567   37.6925  -28.1847 H   0  0  0  0  0  0  0  0  0  0  0  0  # atno 3414 bound_to 950 
  -24.3660   32.3195  -20.0135 H   0  0  0  0  0  0  0  0  0  0  0  0  # atno 3476 bound_to 1244
  -20.2549   31.8805  -18.9738 H   0  0  0  0  0  0  0  0  0  0  0  0  # atno 4380 bound_to 1912
  -23.0370   31.4017  -20.2125 LP  0  0  0  0  0  0  0  0  0  0  0  0  # atno 4866 bound_to 1244
  -23.5852   32.3271  -21.4412 LP  0  0  0  0  0  0  0  0  0  0  0  0  # atno 4867 bound_to 1244
  -20.1930   38.2752  -17.4312 LP  0  0  0  0  0  0  0  0  0  0  0  0  # atno 4874 bound_to 1223
  -21.2352   30.7327  -19.5818 LP  0  0  0  0  0  0  0  0  0  0  0  0  # atno 4875 bound_to 1912
  -19.9467   31.2494  -20.4417 LP  0  0  0  0  0  0  0  0  0  0  0  0  # atno 4876 bound_to 1912
  -19.5353   27.6688  -13.9935 LP  0  0  0  0  0  0  0  0  0  0  0  0  # atno 4881 bound_to 621 
  -17.9978   27.6912  -13.4438 LP  0  0  0  0  0  0  0  0  0  0  0  0  # atno 4882 bound_to 621 

$$$$
Compound 25|Decoys_protonated|sdf|25|dock2
  -GOLD-   6122416163D 1   1.00000     0.00000

 24 25  0  0  0  0  0  0  0  0  3 V2000
  -21.0189   35.0362  -17.6524 S   0  0  0  0  0  0  0  0  0  0  0  0
  -20.6300   34.0341  -16.3923 C   0  0  0  0  0  0  0  0  0  0  0  0
  -21.0888   32.7371  -16.0977 N   0  0  0  0  0  0  0  0  0  0  0  0
  -19.7268   34.4011  -15.4017 N   0  0  0  0  0  0  0  0  0  0  0  0
  -21.9947   32.0980  -16.8965 N   0  0  0  0  0  0  0  0  0  0  0  0
  -20.4759   32.2358  -14.8865 C   0  0  0  0  0  0  0  0  0  0  0  0
  -19.5587   33.3646  -14.4233 C   0  0  0  0  0  0  0  0  0  0  0  0
  -22.5524   31.0108  -16.4786 C   0  0  0  0  0  0  0  0  0  0  0  0
  -23.5126   30.3026  -17.2850 C   0  0  0  0  0  0  0  0  0  0  0  0
  -24.4616   31.0065  -17.9807 O   0  0  0  0  0  0  0  0  0  0  0  0
  -23.6794   28.9463  -17.5141 C   0  0  0  0  0  0  0  0  0  0  0  0
  -25.2156   30.0895  -18.6400 C   0  0  0  0  0  0  0  0  0  0  0  0
  -24.7844   28.8079  -18.3933 C   0  0  0  0  0  0  0  0  0  0  0  0
  -26.2851   30.5903  -19.4451 N   0  3  0  0  0  0  0  0  0  0  0  0
  -27.1017   29.7828  -19.9022 O   0  0  0  0  0  0  0  0  0  0  0  0
  -26.3029   31.8172  -19.6200 O   0  5  0  0  0  0  0  0  0  0  0  0
  -19.2666   35.3037  -15.4107 H   0  0  0  0  0  0  0  0  0  0  0  0
  -21.2493   32.0206  -14.1426 H   0  0  0  0  0  0  0  0  0  0  0  0
  -19.9081   31.3269  -15.1084 H   0  0  0  0  0  0  0  0  0  0  0  0
  -18.5081   33.0613  -14.4016 H   0  0  0  0  0  0  0  0  0  0  0  0
  -19.8427   33.7517  -13.4406 H   0  0  0  0  0  0  0  0  0  0  0  0
  -22.3312   30.5655  -15.4946 H   0  0  0  0  0  0  0  0  0  0  0  0
  -23.0755   28.1515  -17.0964 H   0  0  0  0  0  0  0  0  0  0  0  0
  -25.2108   27.8982  -18.7943 H   0  0  0  0  0  0  0  0  0  0  0  0
  1  2  2  0  0  0  0
  2  3  1  0  0  0  0
  2  4  1  0  0  0  0
  3  5  1  0  0  0  0
  3  6  1  0  0  0  0
  4  7  1  0  0  0  0
  4 17  1  0  0  0  0
  5  8  2  0  0  0  0
  6  7  1  0  0  0  0
  6 18  1  0  0  0  0
  6 19  1  0  0  0  0
  7 20  1  0  0  0  0
  7 21  1  0  0  0  0
  8  9  1  0  0  0  0
  8 22  1  0  0  0  0
  9 10  1  0  0  0  0
  9 11  2  0  0  0  0
 10 12  1  0  0  0  0
 11 13  1  0  0  0  0
 11 23  1  0  0  0  0
 12 14  1  0  0  0  0
 12 13  2  0  0  0  0
 13 24  1  0  0  0  0
 14 15  2  0  0  0  0
 14 16  1  0  0  0  0
M  CHG  1  14   1
M  CHG  1  16  -1
M  END
>  <Column 1>
O=[N+]([O-])c1ccc(C=NN2CCNC2=S)o1 ZINC000000002156

>  <Total Molweight>
240.243

>  <cLogP>
0.3405

>  <cLogS>
-3.122

>  <H-Acceptors>
6

>  <H-Donors>
1

>  <Total Surface Area>
179.87

>  <MMFF94 Energy>
86.608

> <Gold.Version>
5.8.1

> <Gold.Id.Protein>
ID|2FQT|mol2

> <Gold.PLP.Fitness>
58.1869

> <Gold.PLP.PLP>
-40.5617

> <Gold.PLP.part.hbond>
-3.3310

> <Gold.PLP.part.metal>
-1.0000

> <Gold.PLP.part.buried>
-1.3574

> <Gold.PLP.part.nonpolar>
-35.7949

> <Gold.PLP.part.repulsive>
0.3899

> <Gold.PLP.ligand.clash>
0.0000

> <Gold.PLP.ligand.torsion>
0.4086

> <Gold.PLP.Chemscore.Hbond>
4.1450

> <Gold.PLP.Chemscore.CHOScore>
0.0000

> <Gold.PLP.Chemscore.Metal>
1.0000

> <Gold.Chemscore.Hbonds>
donor molecule, donor type, donor heavy atom, donor atom, acceptor molecule, acceptor atom, score
      P1  H   966  3428       L1    15  1.00
      P1  H  1244  3476       L1    16  1.00
      P1  H  1223  2649       L1     1  0.73
      P1  H  1912  4380       L1     5  0.44
      P1  H  1239  3336       L1     1  0.98
      P1  M  1222  1222       L1    15  1.00

> <Gold.PLP.Chemscore.Internal.Correction>
0.0074

> <Gold.Protein.RotatedTorsions>
[ 3412  950  949  948 ] final  -85.51 input   60.00 | X-H torsion
[ 3476 1244 1243 1240 ] final -119.45 input   60.00 | X-H torsion
[ 2649 1223 1224 1225 ] final  -48.97 input   60.00 | X-H torsion
[ 4380 1912 1911 1909 ] final   39.37 input   60.00 | X-H torsion
[ 3084  621  620  617 ] final  -80.81 input   60.00 | X-H torsion

> <Gold.Protein.ActiveResidues>
 HIS54   GLU57   HIS58   ALA61   PHE62   ILE64   ARG65   ASP75   ILE76   ILE77  
 ASP78   ILE79   SER80   PRO81   ILE118  PRO119  ALA120  ALA121  ASN122  LYS124 
 GLN125  CYS126  GLY127  CO701   VAL4    GLU5    SER6    PHE7    GLU8    LEU9   
 HIS11   ARG20   HIS21   CYS22   GLY23   VAL24   HIS25   LYS35   ARG39   MET82  
 GLY83   CYS84   TYR89  

> <Gold.Protein.RotatedAtoms>
  -21.0208   37.2001  -17.2000 H   0  0  0  0  0  0  0  0  0  0  0  0  # atno 2649 bound_to 1223
  -20.2035   38.6418  -17.1775 H   0  0  0  0  0  0  0  0  0  0  0  0  # atno 2650 bound_to 1223
  -19.6647   27.8569  -13.9009 H   0  0  0  0  0  0  0  0  0  0  0  0  # atno 3084 bound_to 621 
  -28.7781   39.2634  -28.6972 H   0  0  0  0  0  0  0  0  0  0  0  0  # atno 3412 bound_to 950 
  -28.4273   37.7440  -28.1355 H   0  0  0  0  0  0  0  0  0  0  0  0  # atno 3413 bound_to 950 
  -27.6252   38.3454  -29.4554 H   0  0  0  0  0  0  0  0  0  0  0  0  # atno 3414 bound_to 950 
  -24.3153   32.2426  -19.9207 H   0  0  0  0  0  0  0  0  0  0  0  0  # atno 3476 bound_to 1244
  -20.9056   31.4365  -18.8443 H   0  0  0  0  0  0  0  0  0  0  0  0  # atno 4380 bound_to 1912
  -22.9799   31.4082  -20.3309 LP  0  0  0  0  0  0  0  0  0  0  0  0  # atno 4866 bound_to 1244
  -23.6933   32.3979  -21.4163 LP  0  0  0  0  0  0  0  0  0  0  0  0  # atno 4867 bound_to 1244
  -21.3877   38.3432  -16.0750 LP  0  0  0  0  0  0  0  0  0  0  0  0  # atno 4874 bound_to 1223
  -20.8230   30.6515  -20.2673 LP  0  0  0  0  0  0  0  0  0  0  0  0  # atno 4875 bound_to 1912
  -19.7035   31.7778  -19.8866 LP  0  0  0  0  0  0  0  0  0  0  0  0  # atno 4876 bound_to 1912
  -18.1005   27.5267  -13.5970 LP  0  0  0  0  0  0  0  0  0  0  0  0  # atno 4881 bound_to 621 
  -18.8110   28.8283  -12.9131 LP  0  0  0  0  0  0  0  0  0  0  0  0  # atno 4882 bound_to 621 

$$$$
Compound 26|Decoys_protonated|sdf|26|dock3
  -GOLD-   6122416163D 1   1.00000     0.00000

 31 33  0  0  0  0  0  0  0  0  1 V2000
  -24.6169   32.3648  -17.7760 N   0  0  0  0  0  0  0  0  0  0  0  0
  -25.5087   31.6229  -18.4806 N   0  0  0  0  0  0  0  0  0  0  0  0
  -23.7325   31.6647  -17.1083 C   0  0  0  0  0  0  0  0  0  0  0  0
  -25.5973   30.2533  -18.5690 C   0  0  0  0  0  0  0  0  0  0  0  0
  -26.5161   32.0945  -19.2729 C   0  0  0  0  0  0  0  0  0  0  0  0
  -22.7663   32.3485  -16.3753 N   0  0  0  0  0  0  0  0  0  0  0  0
  -23.7614   30.1557  -17.1043 C   0  0  0  0  0  0  0  0  0  0  0  0
  -26.5939   29.9264  -19.3668 N   0  0  0  0  0  0  0  0  0  0  0  0
  -24.6740   29.4772  -17.8244 C   0  0  0  0  0  0  0  0  0  0  0  0
  -27.1759   31.0942  -19.8134 N   0  0  0  0  0  0  0  0  0  0  0  0
  -22.0465   31.6771  -15.2829 C   0  0  0  0  0  0  0  0  0  0  0  0
  -22.6696   33.8103  -16.3430 C   0  0  0  0  0  0  0  0  0  0  0  0
  -24.7020   27.9731  -17.8032 C   0  0  0  0  0  0  0  0  0  0  0  0
  -20.5722   32.0803  -15.2988 C   0  0  0  0  0  0  0  0  0  0  0  0
  -21.2071   34.2424  -16.3986 C   0  0  0  0  0  0  0  0  0  0  0  0
  -20.4025   33.5959  -15.2750 C   0  0  0  0  0  0  0  0  0  0  0  0
  -26.7063   33.1471  -19.4100 H   0  0  0  0  0  0  0  0  0  0  0  0
  -23.0501   29.6414  -16.4725 H   0  0  0  0  0  0  0  0  0  0  0  0
  -22.0938   30.5862  -15.3776 H   0  0  0  0  0  0  0  0  0  0  0  0
  -22.5076   31.9428  -14.3241 H   0  0  0  0  0  0  0  0  0  0  0  0
  -23.1346   34.1775  -15.4193 H   0  0  0  0  0  0  0  0  0  0  0  0
  -23.2098   34.2873  -17.1651 H   0  0  0  0  0  0  0  0  0  0  0  0
  -25.6674   27.6175  -17.4282 H   0  0  0  0  0  0  0  0  0  0  0  0
  -24.5569   27.5779  -18.8141 H   0  0  0  0  0  0  0  0  0  0  0  0
  -23.9190   27.5515  -17.1640 H   0  0  0  0  0  0  0  0  0  0  0  0
  -20.0966   31.6804  -16.2032 H   0  0  0  0  0  0  0  0  0  0  0  0
  -20.0565   31.6352  -14.4405 H   0  0  0  0  0  0  0  0  0  0  0  0
  -20.7762   33.9563  -17.3661 H   0  0  0  0  0  0  0  0  0  0  0  0
  -21.1383   35.3332  -16.3226 H   0  0  0  0  0  0  0  0  0  0  0  0
  -20.7393   33.9885  -14.3078 H   0  0  0  0  0  0  0  0  0  0  0  0
  -19.3428   33.8550  -15.3774 H   0  0  0  0  0  0  0  0  0  0  0  0
  1  2  1  0  0  0  0
  1  3  2  0  0  0  0
  2  4  1  0  0  0  0
  2  5  1  0  0  0  0
  3  6  1  0  0  0  0
  3  7  1  0  0  0  0
  4  8  2  0  0  0  0
  4  9  1  0  0  0  0
  5 10  2  0  0  0  0
  5 17  1  0  0  0  0
  6 11  1  0  0  0  0
  6 12  1  0  0  0  0
  7  9  2  0  0  0  0
  7 18  1  0  0  0  0
  8 10  1  0  0  0  0
  9 13  1  0  0  0  0
 11 14  1  0  0  0  0
 11 19  1  0  0  0  0
 11 20  1  0  0  0  0
 12 15  1  0  0  0  0
 12 21  1  0  0  0  0
 12 22  1  0  0  0  0
 13 23  1  0  0  0  0
 13 24  1  0  0  0  0
 13 25  1  0  0  0  0
 14 16  1  0  0  0  0
 14 26  1  0  0  0  0
 14 27  1  0  0  0  0
 15 16  1  0  0  0  0
 15 28  1  0  0  0  0
 15 29  1  0  0  0  0
 16 30  1  0  0  0  0
 16 31  1  0  0  0  0
M  END
>  <Column 1>
Cc1cc(N2CCCCC2)nn2cnnc12 ZINC000000002256

>  <Total Molweight>
217.275

>  <cLogP>
0.7003

>  <cLogS>
-3.434

>  <H-Acceptors>
5

>  <H-Donors>
0

>  <Total Surface Area>
172.65

>  <MMFF94 Energy>
-7.5303

> <Gold.Version>
5.8.1

> <Gold.Id.Protein>
ID|2FQT|mol2

> <Gold.PLP.Fitness>
51.2880

> <Gold.PLP.PLP>
-38.2249

> <Gold.PLP.part.hbond>
-1.0000

> <Gold.PLP.part.metal>
-2.0000

> <Gold.PLP.part.buried>
2.4021

> <Gold.PLP.part.nonpolar>
-38.1188

> <Gold.PLP.part.repulsive>
0.2242

> <Gold.PLP.ligand.clash>
0.0000

> <Gold.PLP.ligand.torsion>
0.0863

> <Gold.PLP.Chemscore.Hbond>
0.0000

> <Gold.PLP.Chemscore.CHOScore>
0.4132

> <Gold.PLP.Chemscore.Metal>
1.9863

> <Gold.Chemscore.Hbonds>
donor molecule, donor type, donor heavy atom, donor atom, acceptor molecule, acceptor atom, score
      L1  C     5    17       P1   954  0.41
      P1  M  1222  1222       L1     8  1.00
      P1  M  1222  1222       L1    10  0.99

> <Gold.PLP.Chemscore.Internal.Correction>
0.0782

> <Gold.Protein.RotatedTorsions>
[ 3412  950  949  948 ] final  126.49 input   60.00 | X-H torsion
[ 3476 1244 1243 1240 ] final -148.60 input   60.00 | X-H torsion
[ 2649 1223 1224 1225 ] final   -1.26 input   60.00 | X-H torsion
[ 4380 1912 1911 1909 ] final   30.36 input   60.00 | X-H torsion
[ 3084  621  620  617 ] final   52.39 input   60.00 | X-H torsion

> <Gold.Protein.ActiveResidues>
 HIS54   GLU57   HIS58   ALA61   PHE62   ILE64   ARG65   ASP75   ILE76   ILE77  
 ASP78   ILE79   SER80   PRO81   ILE118  PRO119  ALA120  ALA121  ASN122  LYS124 
 GLN125  CYS126  GLY127  CO701   VAL4    GLU5    SER6    PHE7    GLU8    LEU9   
 HIS11   ARG20   HIS21   CYS22   GLY23   VAL24   HIS25   LYS35   ARG39   MET82  
 GLY83   CYS84   TYR89  

> <Gold.Protein.RotatedAtoms>
  -20.4646   37.6087  -17.5502 H   0  0  0  0  0  0  0  0  0  0  0  0  # atno 2649 bound_to 1223
  -20.5807   38.9415  -16.5718 H   0  0  0  0  0  0  0  0  0  0  0  0  # atno 2650 bound_to 1223
  -18.6079   28.7586  -12.8894 H   0  0  0  0  0  0  0  0  0  0  0  0  # atno 3084 bound_to 621 
  -27.6063   37.9458  -29.2220 H   0  0  0  0  0  0  0  0  0  0  0  0  # atno 3412 bound_to 950 
  -28.5020   39.3313  -29.0627 H   0  0  0  0  0  0  0  0  0  0  0  0  # atno 3413 bound_to 950 
  -28.7222   38.0757  -28.0034 H   0  0  0  0  0  0  0  0  0  0  0  0  # atno 3414 bound_to 950 
  -24.0335   31.9378  -19.6978 H   0  0  0  0  0  0  0  0  0  0  0  0  # atno 3476 bound_to 1244
  -21.0008   31.3336  -18.8885 H   0  0  0  0  0  0  0  0  0  0  0  0  # atno 4380 bound_to 1912
  -22.8900   31.5290  -20.7809 LP  0  0  0  0  0  0  0  0  0  0  0  0  # atno 4866 bound_to 1244
  -24.0670   32.5842  -21.1908 LP  0  0  0  0  0  0  0  0  0  0  0  0  # atno 4867 bound_to 1244
  -21.5640   37.6454  -16.3268 LP  0  0  0  0  0  0  0  0  0  0  0  0  # atno 4874 bound_to 1223
  -20.7097   30.6899  -20.3545 LP  0  0  0  0  0  0  0  0  0  0  0  0  # atno 4875 bound_to 1912
  -19.7209   31.8429  -19.7548 LP  0  0  0  0  0  0  0  0  0  0  0  0  # atno 4876 bound_to 1912
  -19.7420   28.0339  -13.8042 LP  0  0  0  0  0  0  0  0  0  0  0  0  # atno 4881 bound_to 621 
  -18.2337   27.4130  -13.7245 LP  0  0  0  0  0  0  0  0  0  0  0  0  # atno 4882 bound_to 621 

$$$$
Compound 27|Decoys_protonated|sdf|27|dock3
  -GOLD-   6122416163D 1   1.00000     0.00000

 21 23  0  0  0  0  0  0  0  0  1 V2000
  -26.5775   30.6947  -18.6914 O   0  0  0  0  0  0  0  0  0  0  0  0
  -25.5554   30.8773  -18.0525 C   0  0  0  0  0  0  0  0  0  0  0  0
  -24.6182   29.9194  -17.6248 N   0  0  0  0  0  0  0  0  0  0  0  0
  -25.0917   32.1208  -17.5994 N   0  0  0  0  0  0  0  0  0  0  0  0
  -23.5876   30.5593  -16.9165 C   0  0  0  0  0  0  0  0  0  0  0  0
  -24.7016   28.5083  -17.8732 C   0  0  0  0  0  0  0  0  0  0  0  0
  -23.8951   31.9496  -16.9056 C   0  0  0  0  0  0  0  0  0  0  0  0
  -22.4661   29.9881  -16.3239 C   0  0  0  0  0  0  0  0  0  0  0  0
  -23.1347   32.9471  -16.3091 C   0  0  0  0  0  0  0  0  0  0  0  0
  -21.6588   30.9609  -15.7028 C   0  0  0  0  0  0  0  0  0  0  0  0
  -21.9867   32.4110  -15.6957 C   0  0  0  0  0  0  0  0  0  0  0  0
  -20.5060   30.7962  -15.0343 N   0  0  0  0  0  0  0  0  0  0  0  0
  -21.0154   33.0492  -15.0231 N   0  0  0  0  0  0  0  0  0  0  0  0
  -20.1992   32.0478  -14.6742 N   0  0  0  0  0  0  0  0  0  0  0  0
  -25.5795   32.9854  -17.7705 H   0  0  0  0  0  0  0  0  0  0  0  0
  -24.7386   27.9743  -16.9192 H   0  0  0  0  0  0  0  0  0  0  0  0
  -25.6030   28.2750  -18.4468 H   0  0  0  0  0  0  0  0  0  0  0  0
  -23.8241   28.1886  -18.4430 H   0  0  0  0  0  0  0  0  0  0  0  0
  -22.2285   28.9364  -16.3292 H   0  0  0  0  0  0  0  0  0  0  0  0
  -23.3792   33.9971  -16.3082 H   0  0  0  0  0  0  0  0  0  0  0  0
  -19.3539   32.2364  -14.1405 H   0  0  0  0  0  0  0  0  0  0  0  0
  1  2  2  0  0  0  0
  2  3  1  0  0  0  0
  2  4  1  0  0  0  0
  3  5  1  0  0  0  0
  3  6  1  0  0  0  0
  4  7  1  0  0  0  0
  4 15  1  0  0  0  0
  5  8  2  0  0  0  0
  5  7  1  0  0  0  0
  6 16  1  0  0  0  0
  6 17  1  0  0  0  0
  6 18  1  0  0  0  0
  7  9  2  0  0  0  0
  8 10  1  0  0  0  0
  8 19  1  0  0  0  0
  9 11  1  0  0  0  0
  9 20  1  0  0  0  0
 10 12  2  0  0  0  0
 10 11  1  0  0  0  0
 11 13  2  0  0  0  0
 12 14  1  0  0  0  0
 13 14  1  0  0  0  0
 14 21  1  0  0  0  0
M  END
>  <Column 1>
Cn1c(=O)[nH]c2cc3n[nH]nc3cc21 ZINC000000002428

>  <Total Molweight>
189.178

>  <cLogP>
-0.1118

>  <cLogS>
-2.492

>  <H-Acceptors>
6

>  <H-Donors>
2

>  <Total Surface Area>
133.22

>  <MMFF94 Energy>
-17.803

> <Gold.Version>
5.8.1

> <Gold.Id.Protein>
ID|2FQT|mol2

> <Gold.PLP.Fitness>
38.0913

> <Gold.PLP.PLP>
-32.0913

> <Gold.PLP.part.hbond>
-1.0223

> <Gold.PLP.part.metal>
-1.0000

> <Gold.PLP.part.buried>
-5.1565

> <Gold.PLP.part.nonpolar>
-25.5760

> <Gold.PLP.part.repulsive>
0.5043

> <Gold.PLP.ligand.clash>
0.0000

> <Gold.PLP.ligand.torsion>
0.0000

> <Gold.PLP.Chemscore.Hbond>
0.0000

> <Gold.PLP.Chemscore.CHOScore>
0.0000

> <Gold.PLP.Chemscore.Metal>
1.0000

> <Gold.Chemscore.Hbonds>
donor molecule, donor type, donor heavy atom, donor atom, acceptor molecule, acceptor atom, score
      P1  M  1222  1222       L1     1  1.00

> <Gold.PLP.Chemscore.Internal.Correction>
0.0000

> <Gold.Protein.RotatedTorsions>
[ 3412  950  949  948 ] final -158.41 input   60.00 | X-H torsion
[ 3476 1244 1243 1240 ] final  -10.07 input   60.00 | X-H torsion
[ 2649 1223 1224 1225 ] final  105.09 input   60.00 | X-H torsion
[ 4380 1912 1911 1909 ] final -168.40 input   60.00 | X-H torsion
[ 3084  621  620  617 ] final  141.85 input   60.00 | X-H torsion

> <Gold.Protein.ActiveResidues>
 HIS54   GLU57   HIS58   ALA61   PHE62   ILE64   ARG65   ASP75   ILE76   ILE77  
 ASP78   ILE79   SER80   PRO81   ILE118  PRO119  ALA120  ALA121  ASN122  LYS124 
 GLN125  CYS126  GLY127  CO701   VAL4    GLU5    SER6    PHE7    GLU8    LEU9   
 HIS11   ARG20   HIS21   CYS22   GLY23   VAL24   HIS25   LYS35   ARG39   MET82  
 GLY83   CYS84   TYR89  

> <Gold.Protein.RotatedAtoms>
  -20.4383   38.9128  -16.7466 H   0  0  0  0  0  0  0  0  0  0  0  0  # atno 2649 bound_to 1223
  -21.5671   37.8307  -16.1971 H   0  0  0  0  0  0  0  0  0  0  0  0  # atno 2650 bound_to 1223
  -17.9940   27.7198  -13.4191 H   0  0  0  0  0  0  0  0  0  0  0  0  # atno 3084 bound_to 621 
  -27.9816   39.0216  -29.4718 H   0  0  0  0  0  0  0  0  0  0  0  0  # atno 3412 bound_to 950 
  -28.9574   38.7497  -28.1599 H   0  0  0  0  0  0  0  0  0  0  0  0  # atno 3413 bound_to 950 
  -27.8916   37.5815  -28.6564 H   0  0  0  0  0  0  0  0  0  0  0  0  # atno 3414 bound_to 950 
  -23.8331   32.4787  -21.3511 H   0  0  0  0  0  0  0  0  0  0  0  0  # atno 3476 bound_to 1244
  -19.7996   31.4570  -20.2866 H   0  0  0  0  0  0  0  0  0  0  0  0  # atno 4380 bound_to 1912
  -24.2341   32.1332  -19.8123 LP  0  0  0  0  0  0  0  0  0  0  0  0  # atno 4866 bound_to 1244
  -22.9248   31.4352  -20.4943 LP  0  0  0  0  0  0  0  0  0  0  0  0  # atno 4867 bound_to 1244
  -20.6182   37.4550  -17.4876 LP  0  0  0  0  0  0  0  0  0  0  0  0  # atno 4874 bound_to 1223
  -20.4988   31.7630  -18.8494 LP  0  0  0  0  0  0  0  0  0  0  0  0  # atno 4875 bound_to 1912
  -21.1415   30.6456  -19.8519 LP  0  0  0  0  0  0  0  0  0  0  0  0  # atno 4876 bound_to 1912
  -19.0833   28.8506  -12.9916 LP  0  0  0  0  0  0  0  0  0  0  0  0  # atno 4881 bound_to 621 
  -19.5107   27.6425  -14.0037 LP  0  0  0  0  0  0  0  0  0  0  0  0  # atno 4882 bound_to 621 

$$$$
Compound 28|Decoys_protonated|sdf|28|dock3
  -GOLD-   6122416163D 1   1.00000     0.00000

 25 27  0  0  0  0  0  0  0  0  1 V2000
  -16.6287   35.3937  -17.2386 O   0  0  0  0  0  0  0  0  0  0  0  0
  -16.9740   35.9896  -16.2244 C   0  0  0  0  0  0  0  0  0  0  0  0
  -18.0146   35.5646  -15.4589 N   0  0  0  0  0  0  0  0  0  0  0  0
  -16.2987   37.0803  -15.7907 N   0  0  0  0  0  0  0  0  0  0  0  0
  -18.3624   36.1250  -14.2287 C   0  0  0  0  0  0  0  0  0  0  0  0
  -16.8427   37.9908  -14.8300 C   0  0  1  0  0  0  0  0  0  0  0  0
  -17.7570   37.3224  -13.8364 C   0  0  0  0  0  0  0  0  0  0  0  0
  -19.2844   35.4799  -13.4058 C   0  0  0  0  0  0  0  0  0  0  0  0
  -15.7701   38.7145  -14.2162 N   0  0  0  0  0  0  0  0  0  0  0  0
  -17.5625   39.1708  -15.5586 C   0  0  0  0  0  0  0  0  0  0  0  0
  -18.0910   37.8718  -12.5885 C   0  0  0  0  0  0  0  0  0  0  0  0
  -19.6042   36.0322  -12.1660 C   0  0  0  0  0  0  0  0  0  0  0  0
  -15.8203   40.0584  -14.4762 C   0  0  0  0  0  0  0  0  0  0  0  0
  -18.5362   39.1158  -16.2961 O   0  0  0  0  0  0  0  0  0  0  0  0
  -16.8809   40.3177  -15.2723 N   0  0  0  0  0  0  0  0  0  0  0  0
  -19.0069   37.2240  -11.7568 C   0  0  0  0  0  0  0  0  0  0  0  0
  -15.0290   40.8786  -14.0485 O   0  0  0  0  0  0  0  0  0  0  0  0
  -18.4904   34.7376  -15.7958 H   0  0  0  0  0  0  0  0  0  0  0  0
  -15.5328   37.3753  -16.3760 H   0  0  0  0  0  0  0  0  0  0  0  0
  -19.7527   34.5490  -13.7128 H   0  0  0  0  0  0  0  0  0  0  0  0
  -15.0579   38.2996  -13.6345 H   0  0  0  0  0  0  0  0  0  0  0  0
  -17.6530   38.8101  -12.2542 H   0  0  0  0  0  0  0  0  0  0  0  0
  -20.3205   35.5333  -11.5178 H   0  0  0  0  0  0  0  0  0  0  0  0
  -17.1243   41.2305  -15.6166 H   0  0  0  0  0  0  0  0  0  0  0  0
  -19.2625   37.6537  -10.7906 H   0  0  0  0  0  0  0  0  0  0  0  0
  1  2  2  0  0  0  0
  2  3  1  0  0  0  0
  2  4  1  0  0  0  0
  3  5  1  0  0  0  0
  3 18  1  0  0  0  0
  4  6  1  0  0  0  0
  4 19  1  0  0  0  0
  5  7  2  0  0  0  0
  5  8  1  0  0  0  0
  6  9  1  0  0  0  0
  6 10  1  0  0  0  0
  6  7  1  0  0  0  0
  7 11  1  0  0  0  0
  8 12  2  0  0  0  0
  8 20  1  0  0  0  0
  9 13  1  0  0  0  0
  9 21  1  0  0  0  0
 10 14  2  0  0  0  0
 10 15  1  0  0  0  0
 11 16  2  0  0  0  0
 11 22  1  0  0  0  0
 12 16  1  0  0  0  0
 12 23  1  0  0  0  0
 13 17  2  0  0  0  0
 13 15  1  0  0  0  0
 15 24  1  0  0  0  0
 16 25  1  0  0  0  0
M  END
>  <Column 1>
O=C1NC(=O)[C@]2(N1)NC(=O)Nc1ccccc12 ZINC000000002762

>  <Total Molweight>
232.199

>  <cLogP>
-0.4152

>  <cLogS>
-1.946

>  <H-Acceptors>
7

>  <H-Donors>
4

>  <Total Surface Area>
155.76

>  <MMFF94 Energy>
-164.99

> <Gold.Version>
5.8.1

> <Gold.Id.Protein>
ID|2FQT|mol2

> <Gold.PLP.Fitness>
36.6084

> <Gold.PLP.PLP>
-27.9444

> <Gold.PLP.part.hbond>
-3.0000

> <Gold.PLP.part.metal>
0.0000

> <Gold.PLP.part.buried>
-5.3988

> <Gold.PLP.part.nonpolar>
-19.8668

> <Gold.PLP.part.repulsive>
0.3353

> <Gold.PLP.ligand.clash>
0.0000

> <Gold.PLP.ligand.torsion>
0.0000

> <Gold.PLP.Chemscore.Hbond>
2.8880

> <Gold.PLP.Chemscore.CHOScore>
0.0000

> <Gold.PLP.Chemscore.Metal>
0.0000

> <Gold.Chemscore.Hbonds>
donor molecule, donor type, donor heavy atom, donor atom, acceptor molecule, acceptor atom, score
      L1  H     9    21       P1   587  1.00
      P1  H  1223  2649       L1    14  0.96
      P1  H  1466  3954       L1     1  0.93

> <Gold.PLP.Chemscore.Internal.Correction>
0.0000

> <Gold.Protein.RotatedTorsions>
[ 3412  950  949  948 ] final   60.81 input   60.00 | X-H torsion
[ 3476 1244 1243 1240 ] final -146.95 input   60.00 | X-H torsion
[ 2649 1223 1224 1225 ] final   82.08 input   60.00 | X-H torsion
[ 4380 1912 1911 1909 ] final   35.25 input   60.00 | X-H torsion
[ 3084  621  620  617 ] final  104.12 input   60.00 | X-H torsion

> <Gold.Protein.ActiveResidues>
 HIS54   GLU57   HIS58   ALA61   PHE62   ILE64   ARG65   ASP75   ILE76   ILE77  
 ASP78   ILE79   SER80   PRO81   ILE118  PRO119  ALA120  ALA121  ASN122  LYS124 
 GLN125  CYS126  GLY127  CO701   VAL4    GLU5    SER6    PHE7    GLU8    LEU9   
 HIS11   ARG20   HIS21   CYS22   GLY23   VAL24   HIS25   LYS35   ARG39   MET82  
 GLY83   CYS84   TYR89  

> <Gold.Protein.RotatedAtoms>
  -20.2570   38.7578  -17.0447 H   0  0  0  0  0  0  0  0  0  0  0  0  # atno 2649 bound_to 1223
  -21.4728   38.1807  -16.0773 H   0  0  0  0  0  0  0  0  0  0  0  0  # atno 2650 bound_to 1223
  -18.0254   28.2168  -13.0746 H   0  0  0  0  0  0  0  0  0  0  0  0  # atno 3084 bound_to 621 
  -28.1166   37.5823  -28.3945 H   0  0  0  0  0  0  0  0  0  0  0  0  # atno 3412 bound_to 950 
  -27.7825   38.7452  -29.5274 H   0  0  0  0  0  0  0  0  0  0  0  0  # atno 3413 bound_to 950 
  -28.9315   39.0253  -28.3662 H   0  0  0  0  0  0  0  0  0  0  0  0  # atno 3414 bound_to 950 
  -24.0528   31.9553  -19.7049 H   0  0  0  0  0  0  0  0  0  0  0  0  # atno 3476 bound_to 1244
  -20.9506   31.3897  -18.8621 H   0  0  0  0  0  0  0  0  0  0  0  0  # atno 4380 bound_to 1912
  -22.8898   31.5184  -20.7559 LP  0  0  0  0  0  0  0  0  0  0  0  0  # atno 4866 bound_to 1244
  -24.0477   32.5772  -21.2086 LP  0  0  0  0  0  0  0  0  0  0  0  0  # atno 4867 bound_to 1244
  -20.8897   37.2628  -17.3120 LP  0  0  0  0  0  0  0  0  0  0  0  0  # atno 4874 bound_to 1223
  -20.7720   30.6672  -20.3091 LP  0  0  0  0  0  0  0  0  0  0  0  0  # atno 4875 bound_to 1912
  -19.7091   31.8092  -19.8268 LP  0  0  0  0  0  0  0  0  0  0  0  0  # atno 4876 bound_to 1912
  -19.5750   28.6606  -13.2982 LP  0  0  0  0  0  0  0  0  0  0  0  0  # atno 4881 bound_to 621 
  -18.9874   27.3320  -14.0441 LP  0  0  0  0  0  0  0  0  0  0  0  0  # atno 4882 bound_to 621 

$$$$
Compound 29|Decoys_protonated|sdf|29|dock1
  -GOLD-   6122416163D 1   1.00000     0.00000

 17 18  0  0  0  0  0  0  0  0  1 V2000
  -26.2181   30.3025  -18.1427 N   0  0  0  0  0  0  0  0  0  0  0  0
  -25.3660   30.9636  -17.7153 C   0  0  0  0  0  0  0  0  0  0  0  0
  -24.3263   31.8001  -17.1916 C   0  0  2  0  0  0  0  0  0  0  0  0
  -23.4892   31.2802  -16.0459 C   0  0  2  0  0  0  0  0  0  0  0  0
  -24.4770   32.3913  -15.8123 C   0  0  0  0  0  0  0  0  0  0  0  0
  -21.9810   31.6133  -16.0252 C   0  0  0  0  0  0  0  0  0  0  0  0
  -21.3659   32.4001  -16.9584 N   0  0  0  0  0  0  0  0  0  0  0  0
  -21.0919   31.1708  -15.0773 C   0  0  0  0  0  0  0  0  0  0  0  0
  -20.1051   32.4365  -16.5914 C   0  0  0  0  0  0  0  0  0  0  0  0
  -19.8908   31.7057  -15.4558 N   0  0  0  0  0  0  0  0  0  0  0  0
  -23.8249   32.4157  -17.9322 H   0  0  0  0  0  0  0  0  0  0  0  0
  -23.7354   30.3015  -15.6462 H   0  0  0  0  0  0  0  0  0  0  0  0
  -25.3673   32.1618  -15.2378 H   0  0  0  0  0  0  0  0  0  0  0  0
  -24.0977   33.3949  -15.6544 H   0  0  0  0  0  0  0  0  0  0  0  0
  -21.1996   30.5465  -14.2023 H   0  0  0  0  0  0  0  0  0  0  0  0
  -19.3109   32.9672  -17.0996 H   0  0  0  0  0  0  0  0  0  0  0  0
  -19.0030   31.5864  -14.9875 H   0  0  0  0  0  0  0  0  0  0  0  0
  1  2  3  0  0  0  0
  2  3  1  0  0  0  0
  3  4  1  0  0  0  0
  3  5  1  0  0  0  0
  3 11  1  0  0  0  0
  4  6  1  0  0  0  0
  4  5  1  0  0  0  0
  4 12  1  0  0  0  0
  5 13  1  0  0  0  0
  5 14  1  0  0  0  0
  6  7  1  0  0  0  0
  6  8  2  0  0  0  0
  7  9  2  0  0  0  0
  8 10  1  0  0  0  0
  8 15  1  0  0  0  0
  9 10  1  0  0  0  0
  9 16  1  0  0  0  0
 10 17  1  0  0  0  0
M  END
>  <Column 1>
N#C[C@H]1C[C@@H]1c1c[nH]cn1 ZINC000000003017

>  <Total Molweight>
133.154

>  <cLogP>
0.4995

>  <cLogS>
-1.72

>  <H-Acceptors>
3

>  <H-Donors>
1

>  <Total Surface Area>
108.56

>  <MMFF94 Energy>
-2.7622

> <Gold.Version>
5.8.1

> <Gold.Id.Protein>
ID|2FQT|mol2

> <Gold.PLP.Fitness>
43.8371

> <Gold.PLP.PLP>
-30.2106

> <Gold.PLP.part.hbond>
-2.0000

> <Gold.PLP.part.metal>
-1.0000

> <Gold.PLP.part.buried>
-4.3359

> <Gold.PLP.part.nonpolar>
-23.4873

> <Gold.PLP.part.repulsive>
0.1393

> <Gold.PLP.ligand.clash>
0.0000

> <Gold.PLP.ligand.torsion>
0.0527

> <Gold.PLP.Chemscore.Hbond>
1.5574

> <Gold.PLP.Chemscore.CHOScore>
1.0000

> <Gold.PLP.Chemscore.Metal>
0.9951

> <Gold.Chemscore.Hbonds>
donor molecule, donor type, donor heavy atom, donor atom, acceptor molecule, acceptor atom, score
      L1  H    10    17       P1   606  1.00
      P1  H  1912  4380       L1     7  0.56
      L1  C     8    15       P1   611  1.00
      P1  M  1222  1222       L1     1  1.00

> <Gold.PLP.Chemscore.Internal.Correction>
0.0893

> <Gold.Protein.RotatedTorsions>
[ 3412  950  949  948 ] final  134.89 input   60.00 | X-H torsion
[ 3476 1244 1243 1240 ] final -132.94 input   60.00 | X-H torsion
[ 2649 1223 1224 1225 ] final  -40.08 input   60.00 | X-H torsion
[ 4380 1912 1911 1909 ] final   36.82 input   60.00 | X-H torsion
[ 3084  621  620  617 ] final  -54.35 input   60.00 | X-H torsion

> <Gold.Protein.ActiveResidues>
 HIS54   GLU57   HIS58   ALA61   PHE62   ILE64   ARG65   ASP75   ILE76   ILE77  
 ASP78   ILE79   SER80   PRO81   ILE118  PRO119  ALA120  ALA121  ASN122  LYS124 
 GLN125  CYS126  GLY127  CO701   VAL4    GLU5    SER6    PHE7    GLU8    LEU9   
 HIS11   ARG20   HIS21   CYS22   GLY23   VAL24   HIS25   LYS35   ARG39   MET82  
 GLY83   CYS84   TYR89  

> <Gold.Protein.RotatedAtoms>
  -20.9130   37.2369  -17.2950 H   0  0  0  0  0  0  0  0  0  0  0  0  # atno 2649 bound_to 1223
  -20.2447   38.7371  -17.0715 H   0  0  0  0  0  0  0  0  0  0  0  0  # atno 2650 bound_to 1223
  -19.7620   28.2117  -13.6811 H   0  0  0  0  0  0  0  0  0  0  0  0  # atno 3084 bound_to 621 
  -27.5949   38.0572  -29.3064 H   0  0  0  0  0  0  0  0  0  0  0  0  # atno 3412 bound_to 950 
  -28.5937   39.3328  -28.9567 H   0  0  0  0  0  0  0  0  0  0  0  0  # atno 3413 bound_to 950 
  -28.6419   37.9628  -28.0250 H   0  0  0  0  0  0  0  0  0  0  0  0  # atno 3414 bound_to 950 
  -24.2020   32.1041  -19.7930 H   0  0  0  0  0  0  0  0  0  0  0  0  # atno 3476 bound_to 1244
  -20.9337   31.4077  -18.8547 H   0  0  0  0  0  0  0  0  0  0  0  0  # atno 4380 bound_to 1912
  -22.9142   31.4460  -20.5390 LP  0  0  0  0  0  0  0  0  0  0  0  0  # atno 4866 bound_to 1244
  -23.8732   32.4997  -21.3368 LP  0  0  0  0  0  0  0  0  0  0  0  0  # atno 4867 bound_to 1244
  -21.4534   38.2131  -16.0859 LP  0  0  0  0  0  0  0  0  0  0  0  0  # atno 4874 bound_to 1223
  -20.7917   30.6608  -20.2935 LP  0  0  0  0  0  0  0  0  0  0  0  0  # atno 4875 bound_to 1912
  -19.7065   31.7975  -19.8498 LP  0  0  0  0  0  0  0  0  0  0  0  0  # atno 4876 bound_to 1912
  -18.4010   27.3337  -13.8393 LP  0  0  0  0  0  0  0  0  0  0  0  0  # atno 4881 bound_to 621 
  -18.4125   28.6640  -12.8922 LP  0  0  0  0  0  0  0  0  0  0  0  0  # atno 4882 bound_to 621 

$$$$
Compound 30|Decoys_protonated|sdf|30|dock9
  -GOLD-   6122416163D 1   1.00000     0.00000

 16 16  0  0  0  0  0  0  0  0  1 V2000
  -19.5949   33.7131  -18.9869 N   0  0  0  0  0  0  0  0  0  0  0  0
  -19.7345   34.1531  -17.7133 C   0  0  0  0  0  0  0  0  0  0  0  0
  -18.3738   33.8990  -19.5422 C   0  0  0  0  0  0  0  0  0  0  0  0
  -18.6788   34.7545  -17.0375 C   0  0  0  0  0  0  0  0  0  0  0  0
  -21.0625   33.9740  -17.0489 C   0  0  0  0  0  0  0  0  0  0  0  0
  -17.3181   34.5002  -18.8663 C   0  0  0  0  0  0  0  0  0  0  0  0
  -17.4578   34.9403  -17.5927 N   0  0  0  0  0  0  0  0  0  0  0  0
  -15.9902   34.6793  -19.5308 C   0  0  0  0  0  0  0  0  0  0  0  0
  -18.2681   33.5447  -20.5619 H   0  0  0  0  0  0  0  0  0  0  0  0
  -18.7846   35.1087  -16.0177 H   0  0  0  0  0  0  0  0  0  0  0  0
  -21.4773   34.9457  -16.7629 H   0  0  0  0  0  0  0  0  0  0  0  0
  -20.9581   33.3509  -16.1552 H   0  0  0  0  0  0  0  0  0  0  0  0
  -21.7731   33.4856  -17.7235 H   0  0  0  0  0  0  0  0  0  0  0  0
  -15.2798   35.1678  -18.8561 H   0  0  0  0  0  0  0  0  0  0  0  0
  -16.0947   35.3023  -20.4244 H   0  0  0  0  0  0  0  0  0  0  0  0
  -15.5755   33.7076  -19.8164 H   0  0  0  0  0  0  0  0  0  0  0  0
  1  2  2  0  0  0  0
  1  3  1  0  0  0  0
  2  4  1  0  0  0  0
  2  5  1  0  0  0  0
  3  6  2  0  0  0  0
  3  9  1  0  0  0  0
  4  7  2  0  0  0  0
  4 10  1  0  0  0  0
  5 11  1  0  0  0  0
  5 12  1  0  0  0  0
  5 13  1  0  0  0  0
  6  8  1  0  0  0  0
  6  7  1  0  0  0  0
  8 14  1  0  0  0  0
  8 15  1  0  0  0  0
  8 16  1  0  0  0  0
M  END
>  <Column 1>
Cc1cnc(C)cn1 ZINC000000003182

>  <Total Molweight>
108.144

>  <cLogP>
0.4536

>  <cLogS>
-0.762

>  <H-Acceptors>
2

>  <H-Donors>
0

>  <Total Surface Area>
95.3

>  <MMFF94 Energy>
55.643

> <Gold.Version>
5.8.1

> <Gold.Id.Protein>
ID|2FQT|mol2

> <Gold.PLP.Fitness>
32.9137

> <Gold.PLP.PLP>
-24.3737

> <Gold.PLP.part.hbond>
-3.0000

> <Gold.PLP.part.metal>
0.0000

> <Gold.PLP.part.buried>
-1.0499

> <Gold.PLP.part.nonpolar>
-20.2367

> <Gold.PLP.part.repulsive>
0.1037

> <Gold.PLP.ligand.clash>
0.0000

> <Gold.PLP.ligand.torsion>
0.0000

> <Gold.PLP.Chemscore.Hbond>
1.8582

> <Gold.PLP.Chemscore.CHOScore>
0.9884

> <Gold.PLP.Chemscore.Metal>
0.0000

> <Gold.Chemscore.Hbonds>
donor molecule, donor type, donor heavy atom, donor atom, acceptor molecule, acceptor atom, score
      P1  H  1912  4380       L1     1  1.00
      P1  H  1239  3336       L1     1  0.06
      P1  H  1466  3954       L1     7  0.80
      L1  C     3     9       P1  1237  0.99

> <Gold.PLP.Chemscore.Internal.Correction>
0.0000

> <Gold.Protein.RotatedTorsions>
[ 3412  950  949  948 ] final  -21.57 input   60.00 | X-H torsion
[ 3476 1244 1243 1240 ] final  168.79 input   60.00 | X-H torsion
[ 2649 1223 1224 1225 ] final -173.74 input   60.00 | X-H torsion
[ 4380 1912 1911 1909 ] final  125.87 input   60.00 | X-H torsion
[ 3084  621  620  617 ] final   25.57 input   60.00 | X-H torsion

> <Gold.Protein.ActiveResidues>
 HIS54   GLU57   HIS58   ALA61   PHE62   ILE64   ARG65   ASP75   ILE76   ILE77  
 ASP78   ILE79   SER80   PRO81   ILE118  PRO119  ALA120  ALA121  ASN122  LYS124 
 GLN125  CYS126  GLY127  CO701   VAL4    GLU5    SER6    PHE7    GLU8    LEU9   
 HIS11   ARG20   HIS21   CYS22   GLY23   VAL24   HIS25   LYS35   ARG39   MET82  
 GLY83   CYS84   TYR89  

> <Gold.Protein.RotatedAtoms>
  -21.3509   38.4137  -16.0624 H   0  0  0  0  0  0  0  0  0  0  0  0  # atno 2649 bound_to 1223
  -21.0774   37.1888  -17.1450 H   0  0  0  0  0  0  0  0  0  0  0  0  # atno 2650 bound_to 1223
  -19.0252   28.8451  -12.9725 H   0  0  0  0  0  0  0  0  0  0  0  0  # atno 3084 bound_to 621 
  -28.9131   38.4961  -28.0493 H   0  0  0  0  0  0  0  0  0  0  0  0  # atno 3412 bound_to 950 
  -27.7450   37.6641  -28.8803 H   0  0  0  0  0  0  0  0  0  0  0  0  # atno 3413 bound_to 950 
  -28.1725   39.1925  -29.3584 H   0  0  0  0  0  0  0  0  0  0  0  0  # atno 3414 bound_to 950 
  -23.4791   31.5495  -19.7647 H   0  0  0  0  0  0  0  0  0  0  0  0  # atno 3476 bound_to 1244
  -19.8630   31.9414  -19.3956 H   0  0  0  0  0  0  0  0  0  0  0  0  # atno 4380 bound_to 1912
  -23.1061   31.9112  -21.3068 LP  0  0  0  0  0  0  0  0  0  0  0  0  # atno 4866 bound_to 1244
  -24.4093   32.5931  -20.5975 LP  0  0  0  0  0  0  0  0  0  0  0  0  # atno 4867 bound_to 1244
  -20.2015   38.5790  -17.2279 LP  0  0  0  0  0  0  0  0  0  0  0  0  # atno 4874 bound_to 1223
  -21.1951   31.0554  -19.0978 LP  0  0  0  0  0  0  0  0  0  0  0  0  # atno 4875 bound_to 1912
  -20.3813   30.8653  -20.5008 LP  0  0  0  0  0  0  0  0  0  0  0  0  # atno 4876 bound_to 1912
  -19.5504   27.6858  -13.9865 LP  0  0  0  0  0  0  0  0  0  0  0  0  # atno 4881 bound_to 621 
  -18.0051   27.6741  -13.4585 LP  0  0  0  0  0  0  0  0  0  0  0  0  # atno 4882 bound_to 621 

$$$$
Compound 31|Decoys_protonated|sdf|31|dock4
  -GOLD-   6122416163D 1   1.00000     0.00000

 16 16  0  0  0  0  0  0  0  0  1 V2000
  -19.9171   32.7592  -17.0718 N   0  0  0  0  0  0  0  0  0  0  0  0
  -21.1536   33.2862  -16.8685 C   0  0  0  0  0  0  0  0  0  0  0  0
  -19.0106   33.5773  -17.6487 C   0  0  0  0  0  0  0  0  0  0  0  0
  -21.4606   34.6021  -17.2391 C   0  0  0  0  0  0  0  0  0  0  0  0
  -22.1657   32.3850  -16.2289 C   0  0  0  0  0  0  0  0  0  0  0  0
  -19.3131   34.8741  -18.0139 C   0  0  0  0  0  0  0  0  0  0  0  0
  -20.5362   35.4127  -17.8191 N   0  0  0  0  0  0  0  0  0  0  0  0
  -22.8205   35.1918  -17.0192 C   0  0  0  0  0  0  0  0  0  0  0  0
  -18.0250   33.1570  -17.8107 H   0  0  0  0  0  0  0  0  0  0  0  0
  -22.5114   32.8096  -15.2815 H   0  0  0  0  0  0  0  0  0  0  0  0
  -21.7315   31.4023  -16.0170 H   0  0  0  0  0  0  0  0  0  0  0  0
  -23.0209   32.2363  -16.8954 H   0  0  0  0  0  0  0  0  0  0  0  0
  -18.5764   35.5204  -18.4762 H   0  0  0  0  0  0  0  0  0  0  0  0
  -23.5776   34.6226  -17.5672 H   0  0  0  0  0  0  0  0  0  0  0  0
  -22.8570   36.2268  -17.3754 H   0  0  0  0  0  0  0  0  0  0  0  0
  -23.0680   35.1958  -15.9534 H   0  0  0  0  0  0  0  0  0  0  0  0
  1  2  2  0  0  0  0
  1  3  1  0  0  0  0
  2  4  1  0  0  0  0
  2  5  1  0  0  0  0
  3  6  2  0  0  0  0
  3  9  1  0  0  0  0
  4  7  2  0  0  0  0
  4  8  1  0  0  0  0
  5 10  1  0  0  0  0
  5 11  1  0  0  0  0
  5 12  1  0  0  0  0
  6  7  1  0  0  0  0
  6 13  1  0  0  0  0
  8 14  1  0  0  0  0
  8 15  1  0  0  0  0
  8 16  1  0  0  0  0
M  END
>  <Column 1>
Cc1nccnc1C ZINC000000003183

>  <Total Molweight>
108.144

>  <cLogP>
0.4536

>  <cLogS>
-0.762

>  <H-Acceptors>
2

>  <H-Donors>
0

>  <Total Surface Area>
95.3

>  <MMFF94 Energy>
56.817

> <Gold.Version>
5.8.1

> <Gold.Id.Protein>
ID|2FQT|mol2

> <Gold.PLP.Fitness>
32.4056

> <Gold.PLP.PLP>
-25.0735

> <Gold.PLP.part.hbond>
-4.0000

> <Gold.PLP.part.metal>
0.0000

> <Gold.PLP.part.buried>
-3.5861

> <Gold.PLP.part.nonpolar>
-18.3398

> <Gold.PLP.part.repulsive>
0.0805

> <Gold.PLP.ligand.clash>
0.0000

> <Gold.PLP.ligand.torsion>
0.0000

> <Gold.PLP.Chemscore.Hbond>
2.4441

> <Gold.PLP.Chemscore.CHOScore>
0.0000

> <Gold.PLP.Chemscore.Metal>
0.0000

> <Gold.Chemscore.Hbonds>
donor molecule, donor type, donor heavy atom, donor atom, acceptor molecule, acceptor atom, score
      P1  H  1223  2650       L1     7  1.00
      P1  H  1912  4380       L1     1  0.54
      P1  H  1239  3336       L1     7  0.90

> <Gold.PLP.Chemscore.Internal.Correction>
0.0000

> <Gold.Protein.RotatedTorsions>
[ 3412  950  949  948 ] final   72.36 input   60.00 | X-H torsion
[ 3476 1244 1243 1240 ] final  -99.52 input   60.00 | X-H torsion
[ 2649 1223 1224 1225 ] final -140.58 input   60.00 | X-H torsion
[ 4380 1912 1911 1909 ] final   75.94 input   60.00 | X-H torsion
[ 3084  621  620  617 ] final -158.89 input   60.00 | X-H torsion

> <Gold.Protein.ActiveResidues>
 HIS54   GLU57   HIS58   ALA61   PHE62   ILE64   ARG65   ASP75   ILE76   ILE77  
 ASP78   ILE79   SER80   PRO81   ILE118  PRO119  ALA120  ALA121  ASN122  LYS124 
 GLN125  CYS126  GLY127  CO701   VAL4    GLU5    SER6    PHE7    GLU8    LEU9   
 HIS11   ARG20   HIS21   CYS22   GLY23   VAL24   HIS25   LYS35   ARG39   MET82  
 GLY83   CYS84   TYR89  

> <Gold.Protein.RotatedAtoms>
  -21.5538   37.9155  -16.1575 H   0  0  0  0  0  0  0  0  0  0  0  0  # atno 2649 bound_to 1223
  -20.6767   37.3851  -17.4600 H   0  0  0  0  0  0  0  0  0  0  0  0  # atno 2650 bound_to 1223
  -18.6284   27.2953  -13.9428 H   0  0  0  0  0  0  0  0  0  0  0  0  # atno 3084 bound_to 621 
  -27.9870   37.5675  -28.5362 H   0  0  0  0  0  0  0  0  0  0  0  0  # atno 3412 bound_to 950 
  -27.8867   38.9060  -29.5087 H   0  0  0  0  0  0  0  0  0  0  0  0  # atno 3413 bound_to 950 
  -28.9568   38.8793  -28.2432 H   0  0  0  0  0  0  0  0  0  0  0  0  # atno 3414 bound_to 950 
  -24.4157   32.4226  -20.1708 H   0  0  0  0  0  0  0  0  0  0  0  0  # atno 3476 bound_to 1244
  -20.4390   31.7919  -18.8755 H   0  0  0  0  0  0  0  0  0  0  0  0  # atno 4380 bound_to 1912
  -23.1445   31.4141  -20.0492 LP  0  0  0  0  0  0  0  0  0  0  0  0  # atno 4866 bound_to 1244
  -23.4276   32.2109  -21.4462 LP  0  0  0  0  0  0  0  0  0  0  0  0  # atno 4867 bound_to 1244
  -20.3964   38.8764  -16.8239 LP  0  0  0  0  0  0  0  0  0  0  0  0  # atno 4874 bound_to 1223
  -21.1702   30.6606  -19.7884 LP  0  0  0  0  0  0  0  0  0  0  0  0  # atno 4875 bound_to 1912
  -19.8262   31.4107  -20.3340 LP  0  0  0  0  0  0  0  0  0  0  0  0  # atno 4876 bound_to 1912
  -18.2184   28.5071  -12.9370 LP  0  0  0  0  0  0  0  0  0  0  0  0  # atno 4881 bound_to 621 
  -19.7367   28.4135  -13.5310 LP  0  0  0  0  0  0  0  0  0  0  0  0  # atno 4882 bound_to 621 

$$$$
Compound 32|Decoys_protonated|sdf|32|dock4
  -GOLD-   6122416163D 1   1.00000     0.00000

 17 17  0  0  0  0  0  0  0  0  1 V2000
  -20.2341   33.0429  -17.2908 O   0  0  0  0  0  0  0  0  0  0  0  0
  -19.8283   34.2172  -17.8616 C   0  0  0  0  0  0  0  0  0  0  0  0
  -21.4906   33.3154  -16.8274 C   0  0  0  0  0  0  0  0  0  0  0  0
  -20.7127   35.1909  -17.7964 N   0  0  0  0  0  0  0  0  0  0  0  0
  -18.4797   34.2250  -18.4591 C   0  0  0  0  0  0  0  0  0  0  0  0
  -21.7813   34.6274  -17.1370 C   0  0  0  0  0  0  0  0  0  0  0  0
  -22.2026   32.2207  -16.1480 C   0  0  0  0  0  0  0  0  0  0  0  0
  -23.0042   35.4071  -16.8577 C   0  0  0  0  0  0  0  0  0  0  0  0
  -17.7238   33.9978  -17.7015 H   0  0  0  0  0  0  0  0  0  0  0  0
  -18.2522   35.2060  -18.8868 H   0  0  0  0  0  0  0  0  0  0  0  0
  -18.4095   33.4790  -19.2561 H   0  0  0  0  0  0  0  0  0  0  0  0
  -22.3271   31.3682  -16.8225 H   0  0  0  0  0  0  0  0  0  0  0  0
  -21.6421   31.8865  -15.2694 H   0  0  0  0  0  0  0  0  0  0  0  0
  -23.1954   32.5394  -15.8163 H   0  0  0  0  0  0  0  0  0  0  0  0
  -22.9137   36.4291  -17.2386 H   0  0  0  0  0  0  0  0  0  0  0  0
  -23.1872   35.4613  -15.7800 H   0  0  0  0  0  0  0  0  0  0  0  0
  -23.8728   34.9425  -17.3344 H   0  0  0  0  0  0  0  0  0  0  0  0
  1  2  1  0  0  0  0
  1  3  1  0  0  0  0
  2  4  2  0  0  0  0
  2  5  1  0  0  0  0
  3  6  2  0  0  0  0
  3  7  1  0  0  0  0
  4  6  1  0  0  0  0
  5  9  1  0  0  0  0
  5 10  1  0  0  0  0
  5 11  1  0  0  0  0
  6  8  1  0  0  0  0
  7 12  1  0  0  0  0
  7 13  1  0  0  0  0
  7 14  1  0  0  0  0
  8 15  1  0  0  0  0
  8 16  1  0  0  0  0
  8 17  1  0  0  0  0
M  END
>  <Column 1>
Cc1nc(C)c(C)o1 ZINC000000003184

>  <Total Molweight>
111.143

>  <cLogP>
1.2612

>  <cLogS>
-1.429

>  <H-Acceptors>
2

>  <H-Donors>
0

>  <Total Surface Area>
98.49

>  <MMFF94 Energy>
6.3186

> <Gold.Version>
5.8.1

> <Gold.Id.Protein>
ID|2FQT|mol2

> <Gold.PLP.Fitness>
35.0417

> <Gold.PLP.PLP>
-26.1167

> <Gold.PLP.part.hbond>
-3.4367

> <Gold.PLP.part.metal>
0.0000

> <Gold.PLP.part.buried>
-4.1447

> <Gold.PLP.part.nonpolar>
-19.6359

> <Gold.PLP.part.repulsive>
0.0476

> <Gold.PLP.ligand.clash>
0.0000

> <Gold.PLP.ligand.torsion>
0.0000

> <Gold.PLP.Chemscore.Hbond>
2.9750

> <Gold.PLP.Chemscore.CHOScore>
0.0000

> <Gold.PLP.Chemscore.Metal>
0.0000

> <Gold.Chemscore.Hbonds>
donor molecule, donor type, donor heavy atom, donor atom, acceptor molecule, acceptor atom, score
      P1  H  1223  2650       L1     4  0.98
      P1  H  1912  4380       L1     1  1.00
      P1  H  1239  3336       L1     4  1.00

> <Gold.PLP.Chemscore.Internal.Correction>
0.0000

> <Gold.Protein.RotatedTorsions>
[ 3412  950  949  948 ] final   76.14 input   60.00 | X-H torsion
[ 3476 1244 1243 1240 ] final  151.79 input   60.00 | X-H torsion
[ 2649 1223 1224 1225 ] final -163.50 input   60.00 | X-H torsion
[ 4380 1912 1911 1909 ] final   78.51 input   60.00 | X-H torsion
[ 3084  621  620  617 ] final  152.69 input   60.00 | X-H torsion

> <Gold.Protein.ActiveResidues>
 HIS54   GLU57   HIS58   ALA61   PHE62   ILE64   ARG65   ASP75   ILE76   ILE77  
 ASP78   ILE79   SER80   PRO81   ILE118  PRO119  ALA120  ALA121  ASN122  LYS124 
 GLN125  CYS126  GLY127  CO701   VAL4    GLU5    SER6    PHE7    GLU8    LEU9   
 HIS11   ARG20   HIS21   CYS22   GLY23   VAL24   HIS25   LYS35   ARG39   MET82  
 GLY83   CYS84   TYR89  

> <Gold.Protein.RotatedAtoms>
  -21.4346   38.2647  -16.0656 H   0  0  0  0  0  0  0  0  0  0  0  0  # atno 2649 bound_to 1223
  -20.9548   37.2203  -17.2597 H   0  0  0  0  0  0  0  0  0  0  0  0  # atno 2650 bound_to 1223
  -18.0556   27.5957  -13.5291 H   0  0  0  0  0  0  0  0  0  0  0  0  # atno 3084 bound_to 621 
  -27.9468   37.5705  -28.5849 H   0  0  0  0  0  0  0  0  0  0  0  0  # atno 3412 bound_to 950 
  -27.9245   38.9550  -29.4959 H   0  0  0  0  0  0  0  0  0  0  0  0  # atno 3413 bound_to 950 
  -28.9592   38.8274  -28.2073 H   0  0  0  0  0  0  0  0  0  0  0  0  # atno 3414 bound_to 950 
  -23.2686   31.4556  -19.9182 H   0  0  0  0  0  0  0  0  0  0  0  0  # atno 3476 bound_to 1244
  -20.4044   31.8107  -18.8903 H   0  0  0  0  0  0  0  0  0  0  0  0  # atno 4380 bound_to 1912
  -23.2876   32.0929  -21.4154 LP  0  0  0  0  0  0  0  0  0  0  0  0  # atno 4866 bound_to 1244
  -24.4397   32.5060  -20.3344 LP  0  0  0  0  0  0  0  0  0  0  0  0  # atno 4867 bound_to 1244
  -20.2399   38.6948  -17.1118 LP  0  0  0  0  0  0  0  0  0  0  0  0  # atno 4874 bound_to 1223
  -21.1855   30.6713  -19.7503 LP  0  0  0  0  0  0  0  0  0  0  0  0  # atno 4875 bound_to 1912
  -19.8458   31.3811  -20.3571 LP  0  0  0  0  0  0  0  0  0  0  0  0  # atno 4876 bound_to 1912
  -18.9139   28.8450  -12.9369 LP  0  0  0  0  0  0  0  0  0  0  0  0  # atno 4881 bound_to 621 
  -19.6181   27.7730  -13.9477 LP  0  0  0  0  0  0  0  0  0  0  0  0  # atno 4882 bound_to 621 

$$$$
Compound 33|Decoys_protonated|sdf|33|dock1
  -GOLD-   6122416163D 1   1.00000     0.00000

 18 19  0  0  0  0  0  0  0  0  1 V2000
  -19.0324   33.3252  -18.7221 O   0  0  0  0  0  0  0  0  0  0  0  0
  -18.9786   34.0976  -17.7714 C   0  0  0  0  0  0  0  0  0  0  0  0
  -19.0619   33.6339  -16.4589 O   0  0  0  0  0  0  0  0  0  0  0  0
  -18.8350   35.4475  -17.9479 N   0  0  0  0  0  0  0  0  0  0  0  0
  -18.9975   34.5406  -15.3923 C   0  0  0  0  0  0  0  0  0  0  0  0
  -18.7634   36.3995  -16.9691 C   0  0  0  0  0  0  0  0  0  0  0  0
  -19.0852   34.0301  -14.1002 C   0  0  0  0  0  0  0  0  0  0  0  0
  -18.8517   35.9045  -15.5926 C   0  0  0  0  0  0  0  0  0  0  0  0
  -18.6341   37.5898  -17.2220 O   0  0  0  0  0  0  0  0  0  0  0  0
  -19.2291   32.6930  -13.8694 O   0  0  0  0  0  0  0  0  0  0  0  0
  -19.0271   34.8834  -13.0037 C   0  0  0  0  0  0  0  0  0  0  0  0
  -18.7919   36.7737  -14.4993 C   0  0  0  0  0  0  0  0  0  0  0  0
  -18.8801   36.2587  -13.2030 C   0  0  0  0  0  0  0  0  0  0  0  0
  -18.7760   35.7690  -18.9023 H   0  0  0  0  0  0  0  0  0  0  0  0
  -18.6581   32.2207  -14.5034 H   0  0  0  0  0  0  0  0  0  0  0  0
  -19.0959   34.4799  -11.9966 H   0  0  0  0  0  0  0  0  0  0  0  0
  -18.6776   37.8450  -14.6522 H   0  0  0  0  0  0  0  0  0  0  0  0
  -18.8344   36.9285  -12.3472 H   0  0  0  0  0  0  0  0  0  0  0  0
  1  2  2  0  0  0  0
  2  3  1  0  0  0  0
  2  4  1  0  0  0  0
  3  5  1  0  0  0  0
  4  6  1  0  0  0  0
  4 14  1  0  0  0  0
  5  7  2  0  0  0  0
  5  8  1  0  0  0  0
  6  9  2  0  0  0  0
  6  8  1  0  0  0  0
  7 10  1  0  0  0  0
  7 11  1  0  0  0  0
  8 12  2  0  0  0  0
 10 15  1  0  0  0  0
 11 13  2  0  0  0  0
 11 16  1  0  0  0  0
 12 13  1  0  0  0  0
 12 17  1  0  0  0  0
 13 18  1  0  0  0  0
M  END
>  <Column 1>
O=c1[nH]c(=O)c2cccc(O)c2o1 ZINC000000003754

>  <Total Molweight>
179.131

>  <cLogP>
0.7166

>  <cLogS>
-2.165

>  <H-Acceptors>
5

>  <H-Donors>
2

>  <Total Surface Area>
123.07

>  <MMFF94 Energy>
-41.853

> <Gold.Version>
5.8.1

> <Gold.Id.Protein>
ID|2FQT|mol2

> <Gold.PLP.Fitness>
40.8961

> <Gold.PLP.PLP>
-27.0961

> <Gold.PLP.part.hbond>
-5.5674

> <Gold.PLP.part.metal>
0.0000

> <Gold.PLP.part.buried>
-2.9547

> <Gold.PLP.part.nonpolar>
-18.3024

> <Gold.PLP.part.repulsive>
0.3125

> <Gold.PLP.ligand.clash>
0.0000

> <Gold.PLP.ligand.torsion>
0.0000

> <Gold.PLP.Chemscore.Hbond>
4.6000

> <Gold.PLP.Chemscore.CHOScore>
0.0000

> <Gold.PLP.Chemscore.Metal>
0.0000

> <Gold.Chemscore.Hbonds>
donor molecule, donor type, donor heavy atom, donor atom, acceptor molecule, acceptor atom, score
      L1  H    10    15       P1   606  0.80
      P1  H  1223  2650       L1     9  0.80
      P1  H  1912  4380       L1     1  1.00
      P1  H  1230  2756       L1     9  1.00
      P1  H   608  3069       L1    10  1.00

> <Gold.PLP.Chemscore.Internal.Correction>
0.0000

> <Gold.Protein.RotatedTorsions>
[ 3412  950  949  948 ] final   97.59 input   60.00 | X-H torsion
[ 3476 1244 1243 1240 ] final -149.34 input   60.00 | X-H torsion
[ 2649 1223 1224 1225 ] final  -85.95 input   60.00 | X-H torsion
[ 4380 1912 1911 1909 ] final  113.07 input   60.00 | X-H torsion
[ 3084  621  620  617 ] final -164.75 input   60.00 | X-H torsion

> <Gold.Protein.ActiveResidues>
 HIS54   GLU57   HIS58   ALA61   PHE62   ILE64   ARG65   ASP75   ILE76   ILE77  
 ASP78   ILE79   SER80   PRO81   ILE118  PRO119  ALA120  ALA121  ASN122  LYS124 
 GLN125  CYS126  GLY127  CO701   VAL4    GLU5    SER6    PHE7    GLU8    LEU9   
 HIS11   ARG20   HIS21   CYS22   GLY23   VAL24   HIS25   LYS35   ARG39   MET82  
 GLY83   CYS84   TYR89  

> <Gold.Protein.RotatedAtoms>
  -21.4037   37.2706  -16.7342 H   0  0  0  0  0  0  0  0  0  0  0  0  # atno 2649 bound_to 1223
  -20.2092   38.1274  -17.4998 H   0  0  0  0  0  0  0  0  0  0  0  0  # atno 2650 bound_to 1223
  -18.5408   27.3048  -13.9055 H   0  0  0  0  0  0  0  0  0  0  0  0  # atno 3084 bound_to 621 
  -27.7512   37.6584  -28.8693 H   0  0  0  0  0  0  0  0  0  0  0  0  # atno 3412 bound_to 950 
  -28.1627   39.1855  -29.3654 H   0  0  0  0  0  0  0  0  0  0  0  0  # atno 3413 bound_to 950 
  -28.9166   38.5089  -28.0535 H   0  0  0  0  0  0  0  0  0  0  0  0  # atno 3414 bound_to 950 
  -24.0248   31.9300  -19.6948 H   0  0  0  0  0  0  0  0  0  0  0  0  # atno 3476 bound_to 1244
  -19.9816   31.9493  -19.2240 H   0  0  0  0  0  0  0  0  0  0  0  0  # atno 4380 bound_to 1912
  -22.8903   31.5338  -20.7920 LP  0  0  0  0  0  0  0  0  0  0  0  0  # atno 4866 bound_to 1244
  -24.0754   32.5872  -21.1827 LP  0  0  0  0  0  0  0  0  0  0  0  0  # atno 4867 bound_to 1244
  -21.0049   38.7805  -16.2164 LP  0  0  0  0  0  0  0  0  0  0  0  0  # atno 4874 bound_to 1223
  -21.2440   30.9228  -19.2534 LP  0  0  0  0  0  0  0  0  0  0  0  0  # atno 4875 bound_to 1912
  -20.2130   30.9900  -20.5180 LP  0  0  0  0  0  0  0  0  0  0  0  0  # atno 4876 bound_to 1912
  -18.2872   28.5710  -12.9152 LP  0  0  0  0  0  0  0  0  0  0  0  0  # atno 4881 bound_to 621 
  -19.7561   28.3400  -13.5902 LP  0  0  0  0  0  0  0  0  0  0  0  0  # atno 4882 bound_to 621 

$$$$
Compound 34|Decoys_protonated|sdf|34|dock10
  -GOLD-   6122416163D 1   1.00000     0.00000

 24 26  0  0  0  0  0  0  0  0  1 V2000
  -23.5853   32.5916  -15.2212 N   0  0  0  0  0  0  0  0  0  0  0  0
  -22.7116   32.0607  -16.1130 C   0  0  0  0  0  0  0  0  0  0  0  0
  -24.8773   32.3095  -15.4220 C   0  0  0  0  0  0  0  0  0  0  0  0
  -21.3225   32.3365  -15.9362 N   0  0  0  0  0  0  0  0  0  0  0  0
  -23.1092   31.2713  -17.1756 C   0  0  0  0  0  0  0  0  0  0  0  0
  -25.3729   31.5599  -16.4125 N   0  0  0  0  0  0  0  0  0  0  0  0
  -20.5095   32.6907  -16.9689 N   0  0  0  0  0  0  0  0  0  0  0  0
  -20.6269   32.2875  -14.7449 C   0  0  0  0  0  0  0  0  0  0  0  0
  -24.4687   31.0466  -17.2842 C   0  0  0  0  0  0  0  0  0  0  0  0
  -19.3113   32.8589  -16.4063 C   0  0  0  0  0  0  0  0  0  0  0  0
  -19.3240   32.6215  -15.0233 C   0  0  0  0  0  0  0  0  0  0  0  0
  -24.9544   30.2402  -18.3571 N   0  0  0  0  0  0  0  0  0  0  0  0
  -26.2480   30.2844  -18.7783 N   0  0  0  0  0  0  0  0  0  0  0  0
  -24.2181   29.3354  -19.0949 C   0  0  0  0  0  0  0  0  0  0  0  0
  -26.3027   29.4026  -19.7783 C   0  0  0  0  0  0  0  0  0  0  0  0
  -25.0683   28.7809  -20.0204 C   0  0  0  0  0  0  0  0  0  0  0  0
  -25.5883   32.7270  -14.7168 H   0  0  0  0  0  0  0  0  0  0  0  0
  -22.3986   30.8540  -17.8804 H   0  0  0  0  0  0  0  0  0  0  0  0
  -21.1254   32.0214  -13.8233 H   0  0  0  0  0  0  0  0  0  0  0  0
  -18.4759   33.1488  -17.0314 H   0  0  0  0  0  0  0  0  0  0  0  0
  -18.5013   32.6842  -14.3256 H   0  0  0  0  0  0  0  0  0  0  0  0
  -23.1686   29.1771  -18.8893 H   0  0  0  0  0  0  0  0  0  0  0  0
  -27.2447   29.2500  -20.2905 H   0  0  0  0  0  0  0  0  0  0  0  0
  -24.8291   28.0338  -20.7638 H   0  0  0  0  0  0  0  0  0  0  0  0
  1  2  2  0  0  0  0
  1  3  1  0  0  0  0
  2  4  1  0  0  0  0
  2  5  1  0  0  0  0
  3  6  2  0  0  0  0
  3 17  1  0  0  0  0
  4  7  1  0  0  0  0
  4  8  1  0  0  0  0
  5  9  2  0  0  0  0
  5 18  1  0  0  0  0
  6  9  1  0  0  0  0
  7 10  2  0  0  0  0
  8 11  2  0  0  0  0
  8 19  1  0  0  0  0
  9 12  1  0  0  0  0
 10 11  1  0  0  0  0
 10 20  1  0  0  0  0
 11 21  1  0  0  0  0
 12 13  1  0  0  0  0
 12 14  1  0  0  0  0
 13 15  2  0  0  0  0
 14 16  2  0  0  0  0
 14 22  1  0  0  0  0
 15 16  1  0  0  0  0
 15 23  1  0  0  0  0
 16 24  1  0  0  0  0
M  END
>  <Column 1>
c1cnn(-c2cc(-n3cccn3)ncn2)c1 ZINC000000003851

>  <Total Molweight>
212.216

>  <cLogP>
1.314

>  <cLogS>
1.688

>  <H-Acceptors>
6

>  <H-Donors>
0

>  <Total Surface Area>
166.22

>  <MMFF94 Energy>
52.454

> <Gold.Version>
5.8.1

> <Gold.Id.Protein>
ID|2FQT|mol2

> <Gold.PLP.Fitness>
48.7674

> <Gold.PLP.PLP>
-38.7104

> <Gold.PLP.part.hbond>
-1.0000

> <Gold.PLP.part.metal>
-1.0000

> <Gold.PLP.part.buried>
0.2920

> <Gold.PLP.part.nonpolar>
-38.7097

> <Gold.PLP.part.repulsive>
0.3013

> <Gold.PLP.ligand.clash>
0.0000

> <Gold.PLP.ligand.torsion>
0.9161

> <Gold.PLP.Chemscore.Hbond>
0.9913

> <Gold.PLP.Chemscore.CHOScore>
0.9987

> <Gold.PLP.Chemscore.Metal>
0.9865

> <Gold.Chemscore.Hbonds>
donor molecule, donor type, donor heavy atom, donor atom, acceptor molecule, acceptor atom, score
      P1  H  1912  4380       L1     7  0.99
      L1  C     8    19       P1   611  1.00
      P1  M  1222  1222       L1    13  0.99

> <Gold.PLP.Chemscore.Internal.Correction>
0.0000

> <Gold.Protein.RotatedTorsions>
[ 3412  950  949  948 ] final -171.27 input   60.00 | X-H torsion
[ 3476 1244 1243 1240 ] final   94.67 input   60.00 | X-H torsion
[ 2649 1223 1224 1225 ] final   72.84 input   60.00 | X-H torsion
[ 4380 1912 1911 1909 ] final   66.73 input   60.00 | X-H torsion
[ 3084  621  620  617 ] final  158.49 input   60.00 | X-H torsion

> <Gold.Protein.ActiveResidues>
 HIS54   GLU57   HIS58   ALA61   PHE62   ILE64   ARG65   ASP75   ILE76   ILE77  
 ASP78   ILE79   SER80   PRO81   ILE118  PRO119  ALA120  ALA121  ASN122  LYS124 
 GLN125  CYS126  GLY127  CO701   VAL4    GLU5    SER6    PHE7    GLU8    LEU9   
 HIS11   ARG20   HIS21   CYS22   GLY23   VAL24   HIS25   LYS35   ARG39   MET82  
 GLY83   CYS84   TYR89  

> <Gold.Protein.RotatedAtoms>
  -20.2107   38.6624  -17.1565 H   0  0  0  0  0  0  0  0  0  0  0  0  # atno 2649 bound_to 1223
  -21.4066   38.3190  -16.0617 H   0  0  0  0  0  0  0  0  0  0  0  0  # atno 2650 bound_to 1223
  -18.1005   27.5360  -13.5874 H   0  0  0  0  0  0  0  0  0  0  0  0  # atno 3084 bound_to 621 
  -27.8520   38.8572  -29.5178 H   0  0  0  0  0  0  0  0  0  0  0  0  # atno 3412 bound_to 950 
  -28.9519   38.9273  -28.2798 H   0  0  0  0  0  0  0  0  0  0  0  0  # atno 3413 bound_to 950 
  -28.0266   37.5683  -28.4905 H   0  0  0  0  0  0  0  0  0  0  0  0  # atno 3414 bound_to 950 
  -22.8944   31.5138  -20.7293 H   0  0  0  0  0  0  0  0  0  0  0  0  # atno 3476 bound_to 1244
  -20.5628   31.7166  -18.8356 H   0  0  0  0  0  0  0  0  0  0  0  0  # atno 4380 bound_to 1912
  -24.0286   32.5699  -21.2255 LP  0  0  0  0  0  0  0  0  0  0  0  0  # atno 4866 bound_to 1244
  -24.0756   31.9703  -19.7074 LP  0  0  0  0  0  0  0  0  0  0  0  0  # atno 4867 bound_to 1244
  -21.0006   37.2205  -17.2172 LP  0  0  0  0  0  0  0  0  0  0  0  0  # atno 4874 bound_to 1223
  -21.1046   30.6330  -19.9220 LP  0  0  0  0  0  0  0  0  0  0  0  0  # atno 4875 bound_to 1912
  -19.7671   31.5141  -20.2406 LP  0  0  0  0  0  0  0  0  0  0  0  0  # atno 4876 bound_to 1912
  -18.8221   28.8305  -12.9153 LP  0  0  0  0  0  0  0  0  0  0  0  0  # atno 4881 bound_to 621 
  -19.6647   27.8476  -13.9105 LP  0  0  0  0  0  0  0  0  0  0  0  0  # atno 4882 bound_to 621 

$$$$
Compound 35|Decoys_protonated|sdf|35|dock4
  -GOLD-   6122416163D 1   1.00000     0.00000

 33 35  0  0  0  0  0  0  0  0  1 V2000
  -23.2363   32.4322  -14.7421 S   0  0  0  0  0  0  0  0  0  0  0  0
  -22.5228   31.1422  -15.8373 C   0  0  0  0  0  0  0  0  0  0  0  0
  -24.6863   32.8335  -15.7531 C   0  0  0  0  0  0  0  0  0  0  0  0
  -23.6690   30.8551  -17.2351 S   0  0  0  0  0  0  0  0  0  0  0  0
  -21.1426   31.5386  -16.3766 C   0  0  0  0  0  0  0  0  0  0  0  0
  -25.1343   31.5688  -16.4529 C   0  0  0  0  0  0  0  0  0  0  0  0
  -20.3593   32.3463  -15.4574 N   0  0  0  0  0  0  0  0  0  0  0  0
  -19.5885   33.4357  -15.7558 C   0  0  0  0  0  0  0  0  0  0  0  0
  -20.3155   32.1901  -14.0948 C   0  0  0  0  0  0  0  0  0  0  0  0
  -19.2697   34.0662  -16.9893 C   0  0  0  0  0  0  0  0  0  0  0  0
  -19.1181   33.8745  -14.5552 C   0  0  0  0  0  0  0  0  0  0  0  0
  -19.5656   33.1099  -13.5221 N   0  0  0  0  0  0  0  0  0  0  0  0
  -19.6834   33.6512  -18.0676 O   0  0  0  0  0  0  0  0  0  0  0  0
  -18.4419   35.1806  -16.8340 N   0  0  0  0  0  0  0  0  0  0  0  0
  -18.2953   34.9698  -14.4539 N   0  0  0  0  0  0  0  0  0  0  0  0
  -17.9323   35.6612  -15.6099 C   0  0  0  0  0  0  0  0  0  0  0  0
  -18.0513   35.9132  -18.0228 C   0  0  0  0  0  0  0  0  0  0  0  0
  -17.8116   35.3977  -13.1539 C   0  0  0  0  0  0  0  0  0  0  0  0
  -17.1961   36.6516  -15.5748 O   0  0  0  0  0  0  0  0  0  0  0  0
  -22.4654   30.2189  -15.2540 H   0  0  0  0  0  0  0  0  0  0  0  0
  -25.4815   33.2300  -15.1148 H   0  0  0  0  0  0  0  0  0  0  0  0
  -24.4157   33.6156  -16.4711 H   0  0  0  0  0  0  0  0  0  0  0  0
  -20.5344   30.6518  -16.5954 H   0  0  0  0  0  0  0  0  0  0  0  0
  -21.2252   32.1000  -17.3168 H   0  0  0  0  0  0  0  0  0  0  0  0
  -25.5611   30.8454  -15.7495 H   0  0  0  0  0  0  0  0  0  0  0  0
  -25.8922   31.7872  -17.2110 H   0  0  0  0  0  0  0  0  0  0  0  0
  -20.8427   31.3979  -13.5773 H   0  0  0  0  0  0  0  0  0  0  0  0
  -16.9609   35.8796  -18.1164 H   0  0  0  0  0  0  0  0  0  0  0  0
  -18.3535   36.9598  -17.9126 H   0  0  0  0  0  0  0  0  0  0  0  0
  -18.4994   35.5082  -18.9334 H   0  0  0  0  0  0  0  0  0  0  0  0
  -17.2401   34.5824  -12.6993 H   0  0  0  0  0  0  0  0  0  0  0  0
  -18.6676   35.6446  -12.5181 H   0  0  0  0  0  0  0  0  0  0  0  0
  -17.1665   36.2770  -13.2279 H   0  0  0  0  0  0  0  0  0  0  0  0
  1  2  1  0  0  0  0
  1  3  1  0  0  0  0
  2  4  1  0  0  0  0
  2  5  1  0  0  0  0
  2 20  1  0  0  0  0
  3  6  1  0  0  0  0
  3 21  1  0  0  0  0
  3 22  1  0  0  0  0
  4  6  1  0  0  0  0
  5  7  1  0  0  0  0
  5 23  1  0  0  0  0
  5 24  1  0  0  0  0
  6 25  1  0  0  0  0
  6 26  1  0  0  0  0
  7  8  1  0  0  0  0
  7  9  1  0  0  0  0
  8 10  1  0  0  0  0
  8 11  2  0  0  0  0
  9 12  2  0  0  0  0
  9 27  1  0  0  0  0
 10 13  2  0  0  0  0
 10 14  1  0  0  0  0
 11 15  1  0  0  0  0
 11 12  1  0  0  0  0
 14 16  1  0  0  0  0
 14 17  1  0  0  0  0
 15 18  1  0  0  0  0
 15 16  1  0  0  0  0
 16 19  2  0  0  0  0
 17 28  1  0  0  0  0
 17 29  1  0  0  0  0
 17 30  1  0  0  0  0
 18 31  1  0  0  0  0
 18 32  1  0  0  0  0
 18 33  1  0  0  0  0
M  END
>  <Column 1>
Cn1c(=O)c2c(ncn2CC2SCCS2)n(C)c1=O ZINC000000003885

>  <Total Molweight>
298.39

>  <cLogP>
0.3798

>  <cLogS>
-1.805

>  <H-Acceptors>
6

>  <H-Donors>
0

>  <Total Surface Area>
203.6

>  <MMFF94 Energy>
-108.72

> <Gold.Version>
5.8.1

> <Gold.Id.Protein>
ID|2FQT|mol2

> <Gold.PLP.Fitness>
49.2324

> <Gold.PLP.PLP>
-42.3538

> <Gold.PLP.part.hbond>
-2.0000

> <Gold.PLP.part.metal>
0.0000

> <Gold.PLP.part.buried>
-4.5344

> <Gold.PLP.part.nonpolar>
-37.1486

> <Gold.PLP.part.repulsive>
0.2992

> <Gold.PLP.ligand.clash>
0.0000

> <Gold.PLP.ligand.torsion>
0.5959

> <Gold.PLP.Chemscore.Hbond>
1.8775

> <Gold.PLP.Chemscore.CHOScore>
0.8102

> <Gold.PLP.Chemscore.Metal>
0.0000

> <Gold.Chemscore.Hbonds>
donor molecule, donor type, donor heavy atom, donor atom, acceptor molecule, acceptor atom, score
      P1  H  1912  4380       L1    13  1.00
      P1  H   608  3069       L1    12  0.88
      L1  C     9    27       P1   611  0.81

> <Gold.PLP.Chemscore.Internal.Correction>
0.0072

> <Gold.Protein.RotatedTorsions>
[ 3412  950  949  948 ] final   86.46 input   60.00 | X-H torsion
[ 3476 1244 1243 1240 ] final  123.88 input   60.00 | X-H torsion
[ 2649 1223 1224 1225 ] final   73.75 input   60.00 | X-H torsion
[ 4380 1912 1911 1909 ] final  100.29 input   60.00 | X-H torsion
[ 3084  621  620  617 ] final  -33.91 input   60.00 | X-H torsion

> <Gold.Protein.ActiveResidues>
 HIS54   GLU57   HIS58   ALA61   PHE62   ILE64   ARG65   ASP75   ILE76   ILE77  
 ASP78   ILE79   SER80   PRO81   ILE118  PRO119  ALA120  ALA121  ASN122  LYS124 
 GLN125  CYS126  GLY127  CO701   VAL4    GLU5    SER6    PHE7    GLU8    LEU9   
 HIS11   ARG20   HIS21   CYS22   GLY23   VAL24   HIS25   LYS35   ARG39   MET82  
 GLY83   CYS84   TYR89  

> <Gold.Protein.RotatedAtoms>
  -20.2145   38.6726  -17.1459 H   0  0  0  0  0  0  0  0  0  0  0  0  # atno 2649 bound_to 1223
  -21.4138   38.3056  -16.0623 H   0  0  0  0  0  0  0  0  0  0  0  0  # atno 2650 bound_to 1223
  -19.7076   28.4690  -13.4782 H   0  0  0  0  0  0  0  0  0  0  0  0  # atno 3084 bound_to 621 
  -27.8451   37.5979  -28.7211 H   0  0  0  0  0  0  0  0  0  0  0  0  # atno 3412 bound_to 950 
  -28.0349   39.0769  -29.4450 H   0  0  0  0  0  0  0  0  0  0  0  0  # atno 3413 bound_to 950 
  -28.9504   38.6780  -28.1221 H   0  0  0  0  0  0  0  0  0  0  0  0  # atno 3414 bound_to 950 
  -23.0054   31.4101  -20.2821 H   0  0  0  0  0  0  0  0  0  0  0  0  # atno 3476 bound_to 1244
  -20.1246   31.9244  -19.0746 H   0  0  0  0  0  0  0  0  0  0  0  0  # atno 4380 bound_to 1912
  -23.6482   32.3693  -21.4288 LP  0  0  0  0  0  0  0  0  0  0  0  0  # atno 4866 bound_to 1244
  -24.3441   32.2753  -19.9545 LP  0  0  0  0  0  0  0  0  0  0  0  0  # atno 4867 bound_to 1244
  -20.9898   37.2237  -17.2270 LP  0  0  0  0  0  0  0  0  0  0  0  0  # atno 4874 bound_to 1223
  -21.2549   30.8086  -19.4290 LP  0  0  0  0  0  0  0  0  0  0  0  0  # atno 4875 bound_to 1912
  -20.0582   31.1293  -20.4928 LP  0  0  0  0  0  0  0  0  0  0  0  0  # atno 4876 bound_to 1912
  -18.7031   27.2894  -13.9758 LP  0  0  0  0  0  0  0  0  0  0  0  0  # atno 4881 bound_to 621 
  -18.1652   28.4492  -12.9599 LP  0  0  0  0  0  0  0  0  0  0  0  0  # atno 4882 bound_to 621 

$$$$
Compound 36|Decoys_protonated|sdf|36|dock2
  -GOLD-   6122416163D 1   1.00000     0.00000

 21 23  0  0  0  0  0  0  0  0  1 V2000
  -20.1698   33.0470  -14.1969 S   0  0  0  0  0  0  0  0  0  0  0  0
  -19.0609   34.4365  -13.9900 C   0  0  0  0  0  0  0  0  0  0  0  0
  -19.6031   32.4922  -15.8232 C   0  0  0  0  0  0  0  0  0  0  0  0
  -18.5778   35.1784  -15.0860 C   0  0  0  0  0  0  0  0  0  0  0  0
  -18.7045   34.8001  -12.6852 C   0  0  0  0  0  0  0  0  0  0  0  0
  -19.4894   33.6412  -16.7749 C   0  0  0  0  0  0  0  0  0  0  0  0
  -18.9665   34.8290  -16.3924 N   0  0  0  0  0  0  0  0  0  0  0  0
  -17.7241   36.2637  -14.8462 C   0  0  0  0  0  0  0  0  0  0  0  0
  -17.8553   35.8832  -12.4628 C   0  0  0  0  0  0  0  0  0  0  0  0
  -19.8149   33.5638  -18.0363 N   0  0  0  0  0  0  0  0  0  0  0  0
  -18.9698   35.6126  -17.5245 C   0  0  0  0  0  0  0  0  0  0  0  0
  -17.3638   36.6118  -13.5418 C   0  0  0  0  0  0  0  0  0  0  0  0
  -19.4994   34.7991  -18.5261 N   0  0  0  0  0  0  0  0  0  0  0  0
  -18.6152   36.7690  -17.6850 O   0  0  0  0  0  0  0  0  0  0  0  0
  -18.6193   32.0216  -15.7248 H   0  0  0  0  0  0  0  0  0  0  0  0
  -20.3020   31.7494  -16.2187 H   0  0  0  0  0  0  0  0  0  0  0  0
  -19.0853   34.2422  -11.8322 H   0  0  0  0  0  0  0  0  0  0  0  0
  -17.3215   36.8574  -15.6637 H   0  0  0  0  0  0  0  0  0  0  0  0
  -17.5802   36.1597  -11.4477 H   0  0  0  0  0  0  0  0  0  0  0  0
  -16.7027   37.4586  -13.3714 H   0  0  0  0  0  0  0  0  0  0  0  0
  -19.6492   35.0669  -19.4899 H   0  0  0  0  0  0  0  0  0  0  0  0
  1  2  1  0  0  0  0
  1  3  1  0  0  0  0
  2  4  2  0  0  0  0
  2  5  1  0  0  0  0
  3  6  1  0  0  0  0
  3 15  1  0  0  0  0
  3 16  1  0  0  0  0
  4  7  1  0  0  0  0
  4  8  1  0  0  0  0
  5  9  2  0  0  0  0
  5 17  1  0  0  0  0
  6 10  2  0  0  0  0
  6  7  1  0  0  0  0
  7 11  1  0  0  0  0
  8 12  2  0  0  0  0
  8 18  1  0  0  0  0
  9 12  1  0  0  0  0
  9 19  1  0  0  0  0
 10 13  1  0  0  0  0
 11 14  2  0  0  0  0
 11 13  1  0  0  0  0
 12 20  1  0  0  0  0
 13 21  1  0  0  0  0
M  END
>  <Column 1>
O=c1[nH]nc2n1-c1ccccc1SC2 ZINC000000003946

>  <Total Molweight>
205.241

>  <cLogP>
0.4756

>  <cLogS>
-3.711

>  <H-Acceptors>
4

>  <H-Donors>
1

>  <Total Surface Area>
139.99

>  <MMFF94 Energy>
46.055

> <Gold.Version>
5.8.1

> <Gold.Id.Protein>
ID|2FQT|mol2

> <Gold.PLP.Fitness>
41.0787

> <Gold.PLP.PLP>
-32.1027

> <Gold.PLP.part.hbond>
-3.0000

> <Gold.PLP.part.metal>
0.0000

> <Gold.PLP.part.buried>
-3.9957

> <Gold.PLP.part.nonpolar>
-26.3369

> <Gold.PLP.part.repulsive>
1.4261

> <Gold.PLP.ligand.clash>
0.0000

> <Gold.PLP.ligand.torsion>
0.0000

> <Gold.PLP.Chemscore.Hbond>
2.9920

> <Gold.PLP.Chemscore.CHOScore>
0.0000

> <Gold.PLP.Chemscore.Metal>
0.0000

> <Gold.Chemscore.Hbonds>
donor molecule, donor type, donor heavy atom, donor atom, acceptor molecule, acceptor atom, score
      P1  H  1223  2650       L1    14  1.00
      P1  H  1912  4380       L1    10  1.00
      P1  H  1230  2756       L1    14  0.99

> <Gold.PLP.Chemscore.Internal.Correction>
0.0000

> <Gold.Protein.RotatedTorsions>
[ 3412  950  949  948 ] final   73.21 input   60.00 | X-H torsion
[ 3476 1244 1243 1240 ] final  117.21 input   60.00 | X-H torsion
[ 2649 1223 1224 1225 ] final -106.51 input   60.00 | X-H torsion
[ 4380 1912 1911 1909 ] final   96.13 input   60.00 | X-H torsion
[ 3084  621  620  617 ] final  -59.60 input   60.00 | X-H torsion

> <Gold.Protein.ActiveResidues>
 HIS54   GLU57   HIS58   ALA61   PHE62   ILE64   ARG65   ASP75   ILE76   ILE77  
 ASP78   ILE79   SER80   PRO81   ILE118  PRO119  ALA120  ALA121  ASN122  LYS124 
 GLN125  CYS126  GLY127  CO701   VAL4    GLU5    SER6    PHE7    GLU8    LEU9   
 HIS11   ARG20   HIS21   CYS22   GLY23   VAL24   HIS25   LYS35   ARG39   MET82  
 GLY83   CYS84   TYR89  

> <Gold.Protein.RotatedAtoms>
  -21.5309   37.4552  -16.4766 H   0  0  0  0  0  0  0  0  0  0  0  0  # atno 2649 bound_to 1223
  -20.3325   37.8154  -17.5635 H   0  0  0  0  0  0  0  0  0  0  0  0  # atno 2650 bound_to 1223
  -19.7576   28.1412  -13.7299 H   0  0  0  0  0  0  0  0  0  0  0  0  # atno 3084 bound_to 621 
  -27.9778   37.5679  -28.5471 H   0  0  0  0  0  0  0  0  0  0  0  0  # atno 3412 bound_to 950 
  -27.8951   38.9172  -29.5061 H   0  0  0  0  0  0  0  0  0  0  0  0  # atno 3413 bound_to 950 
  -28.9576   38.8677  -28.2349 H   0  0  0  0  0  0  0  0  0  0  0  0  # atno 3414 bound_to 950 
  -22.9635   31.4205  -20.3822 H   0  0  0  0  0  0  0  0  0  0  0  0  # atno 3476 bound_to 1244
  -20.1753   31.9094  -19.0319 H   0  0  0  0  0  0  0  0  0  0  0  0  # atno 4380 bound_to 1912
  -23.7384   32.4254  -21.4009 LP  0  0  0  0  0  0  0  0  0  0  0  0  # atno 4866 bound_to 1244
  -24.2962   32.2088  -19.8815 LP  0  0  0  0  0  0  0  0  0  0  0  0  # atno 4867 bound_to 1244
  -20.7581   38.9060  -16.4075 LP  0  0  0  0  0  0  0  0  0  0  0  0  # atno 4874 bound_to 1223
  -21.2501   30.7763  -19.4892 LP  0  0  0  0  0  0  0  0  0  0  0  0  # atno 4875 bound_to 1912
  -20.0119   31.1767  -20.4757 LP  0  0  0  0  0  0  0  0  0  0  0  0  # atno 4876 bound_to 1912
  -18.3313   27.3606  -13.7958 LP  0  0  0  0  0  0  0  0  0  0  0  0  # atno 4881 bound_to 621 
  -18.4866   28.7080  -12.8865 LP  0  0  0  0  0  0  0  0  0  0  0  0  # atno 4882 bound_to 621 

$$$$
Compound 37|Decoys_protonated|sdf|37|dock3
  -GOLD-   6122416163D 1   1.00000     0.00000

 21 22  0  0  0  0  0  0  0  0  1 V2000
  -20.2481   35.4006  -17.8562 O   0  0  0  0  0  0  0  0  0  0  0  0
  -20.2562   34.7700  -16.8011 C   0  0  0  0  0  0  0  0  0  0  0  0
  -20.9209   33.5776  -16.7485 N   0  0  0  0  0  0  0  0  0  0  0  0
  -19.5584   35.2575  -15.5539 C   0  0  2  0  0  0  0  0  0  0  0  0
  -21.1999   32.8288  -15.5502 C   0  0  0  0  0  0  0  0  0  0  0  0
  -18.0504   35.1637  -15.6077 C   0  0  0  0  0  0  0  0  0  0  0  0
  -19.8892   34.4977  -14.2560 C   0  0  1  0  0  0  0  0  0  0  0  0
  -20.1058   33.0031  -14.5164 C   0  0  0  0  0  0  0  0  0  0  0  0
  -17.3121   35.3401  -16.5593 O   0  0  0  0  0  0  0  0  0  0  0  0
  -17.6003   34.8680  -14.3328 N   0  0  0  0  0  0  0  0  0  0  0  0
  -18.6634   34.7423  -13.3856 C   0  0  0  0  0  0  0  0  0  0  0  0
  -21.3583   33.3087  -17.6233 H   0  0  0  0  0  0  0  0  0  0  0  0
  -19.8121   36.3178  -15.4228 H   0  0  0  0  0  0  0  0  0  0  0  0
  -21.3088   31.7765  -15.8294 H   0  0  0  0  0  0  0  0  0  0  0  0
  -22.1623   33.1802  -15.1627 H   0  0  0  0  0  0  0  0  0  0  0  0
  -20.7894   34.9056  -13.7803 H   0  0  0  0  0  0  0  0  0  0  0  0
  -19.1815   32.5350  -14.8786 H   0  0  0  0  0  0  0  0  0  0  0  0
  -20.3817   32.4914  -13.5874 H   0  0  0  0  0  0  0  0  0  0  0  0
  -16.6077   34.8093  -14.1361 H   0  0  0  0  0  0  0  0  0  0  0  0
  -18.7382   35.6889  -12.8406 H   0  0  0  0  0  0  0  0  0  0  0  0
  -18.4465   33.9331  -12.6834 H   0  0  0  0  0  0  0  0  0  0  0  0
  1  2  2  0  0  0  0
  2  3  1  0  0  0  0
  2  4  1  0  0  0  0
  3  5  1  0  0  0  0
  3 12  1  0  0  0  0
  4  6  1  0  0  0  0
  4  7  1  0  0  0  0
  4 13  1  0  0  0  0
  5  8  1  0  0  0  0
  5 14  1  0  0  0  0
  5 15  1  0  0  0  0
  6  9  2  0  0  0  0
  6 10  1  0  0  0  0
  7 11  1  0  0  0  0
  7  8  1  0  0  0  0
  7 16  1  0  0  0  0
  8 17  1  0  0  0  0
  8 18  1  0  0  0  0
 10 11  1  0  0  0  0
 10 19  1  0  0  0  0
 11 20  1  0  0  0  0
 11 21  1  0  0  0  0
M  END
>  <Column 1>
O=C1NCC[C@H]2CNC(=O)[C@@H]12 ZINC000000003976

>  <Total Molweight>
154.168

>  <cLogP>
-1.108

>  <cLogS>
-0.74

>  <H-Acceptors>
4

>  <H-Donors>
2

>  <Total Surface Area>
111.2

>  <MMFF94 Energy>
-41.387

> <Gold.Version>
5.8.1

> <Gold.Id.Protein>
ID|2FQT|mol2

> <Gold.PLP.Fitness>
33.4440

> <Gold.PLP.PLP>
-22.7543

> <Gold.PLP.part.hbond>
-5.0000

> <Gold.PLP.part.metal>
0.0000

> <Gold.PLP.part.buried>
-4.4400

> <Gold.PLP.part.nonpolar>
-14.7507

> <Gold.PLP.part.repulsive>
0.3384

> <Gold.PLP.ligand.clash>
0.0000

> <Gold.PLP.ligand.torsion>
0.0000

> <Gold.PLP.Chemscore.Hbond>
3.5633

> <Gold.PLP.Chemscore.CHOScore>
0.0000

> <Gold.PLP.Chemscore.Metal>
0.0000

> <Gold.Chemscore.Hbonds>
donor molecule, donor type, donor heavy atom, donor atom, acceptor molecule, acceptor atom, score
      L1  H    10    19       P1   595  0.99
      P1  H  1223  2650       L1     1  1.00
      P1  H  1239  3336       L1     1  1.00
      P1  H  1466  3954       L1     9  0.57

> <Gold.PLP.Chemscore.Internal.Correction>
0.0000

> <Gold.Protein.RotatedTorsions>
[ 3412  950  949  948 ] final  -21.34 input   60.00 | X-H torsion
[ 3476 1244 1243 1240 ] final -125.83 input   60.00 | X-H torsion
[ 2649 1223 1224 1225 ] final -142.33 input   60.00 | X-H torsion
[ 4380 1912 1911 1909 ] final -129.87 input   60.00 | X-H torsion
[ 3084  621  620  617 ] final  142.54 input   60.00 | X-H torsion

> <Gold.Protein.ActiveResidues>
 HIS54   GLU57   HIS58   ALA61   PHE62   ILE64   ARG65   ASP75   ILE76   ILE77  
 ASP78   ILE79   SER80   PRO81   ILE118  PRO119  ALA120  ALA121  ASN122  LYS124 
 GLN125  CYS126  GLY127  CO701   VAL4    GLU5    SER6    PHE7    GLU8    LEU9   
 HIS11   ARG20   HIS21   CYS22   GLY23   VAL24   HIS25   LYS35   ARG39   MET82  
 GLY83   CYS84   TYR89  

> <Gold.Protein.RotatedAtoms>
  -21.5484   37.9421  -16.1465 H   0  0  0  0  0  0  0  0  0  0  0  0  # atno 2649 bound_to 1223
  -20.6974   37.3683  -17.4480 H   0  0  0  0  0  0  0  0  0  0  0  0  # atno 2650 bound_to 1223
  -17.9970   27.7114  -13.4261 H   0  0  0  0  0  0  0  0  0  0  0  0  # atno 3084 bound_to 621 
  -28.9121   38.4925  -28.0482 H   0  0  0  0  0  0  0  0  0  0  0  0  # atno 3412 bound_to 950 
  -27.7432   37.6658  -28.8835 H   0  0  0  0  0  0  0  0  0  0  0  0  # atno 3413 bound_to 950 
  -28.1753   39.1945  -29.3564 H   0  0  0  0  0  0  0  0  0  0  0  0  # atno 3414 bound_to 950 
  -24.2658   32.1782  -19.8555 H   0  0  0  0  0  0  0  0  0  0  0  0  # atno 3476 bound_to 1244
  -20.1767   31.0212  -20.5089 H   0  0  0  0  0  0  0  0  0  0  0  0  # atno 4380 bound_to 1912
  -22.9438   31.4220  -20.4285 LP  0  0  0  0  0  0  0  0  0  0  0  0  # atno 4866 bound_to 1244
  -23.7792   32.4491  -21.3844 LP  0  0  0  0  0  0  0  0  0  0  0  0  # atno 4867 bound_to 1244
  -20.3814   38.8668  -16.8465 LP  0  0  0  0  0  0  0  0  0  0  0  0  # atno 4874 bound_to 1223
  -20.0107   31.9528  -19.1851 LP  0  0  0  0  0  0  0  0  0  0  0  0  # atno 4875 bound_to 1912
  -21.2499   30.8947  -19.2923 LP  0  0  0  0  0  0  0  0  0  0  0  0  # atno 4876 bound_to 1912
  -19.0727   28.8511  -12.9876 LP  0  0  0  0  0  0  0  0  0  0  0  0  # atno 4881 bound_to 621 
  -19.5183   27.6504  -14.0007 LP  0  0  0  0  0  0  0  0  0  0  0  0  # atno 4882 bound_to 621 

$$$$
Compound 38|Decoys_protonated|sdf|38|dock6
  -GOLD-   6122416163D 1   1.00000     0.00000

 34 36  0  0  0  0  0  0  0  0  1 V2000
  -20.9676   30.9616  -14.9687 F   0  0  0  0  0  0  0  0  0  0  0  0
  -21.7758   31.9062  -15.4711 C   0  0  0  0  0  0  0  0  0  0  0  0
  -21.2448   33.1613  -15.8160 C   0  0  0  0  0  0  0  0  0  0  0  0
  -23.1251   31.6075  -15.6197 C   0  0  0  0  0  0  0  0  0  0  0  0
  -22.1345   34.1251  -16.3242 C   0  0  0  0  0  0  0  0  0  0  0  0
  -19.7452   33.4435  -15.6587 C   0  0  0  0  0  0  0  0  0  0  0  0
  -23.9738   32.5787  -16.1247 C   0  0  0  0  0  0  0  0  0  0  0  0
  -23.4930   33.8336  -16.4770 C   0  0  0  0  0  0  0  0  0  0  0  0
  -19.0108   32.3467  -16.2524 O   0  0  0  0  0  0  0  0  0  0  0  0
  -19.3160   33.5576  -14.1732 C   0  0  0  0  0  0  0  0  0  0  0  0
  -19.4007   34.7382  -16.4510 C   0  0  0  0  0  0  0  0  0  0  0  0
  -25.2767   32.3061  -16.2708 F   0  0  0  0  0  0  0  0  0  0  0  0
  -18.8979   34.8886  -13.7788 N   0  0  0  0  0  0  0  0  0  0  0  0
  -18.6446   34.5041  -17.6650 N   0  0  0  0  0  0  0  0  0  0  0  0
  -19.7204   35.6855  -13.0701 N   0  0  0  0  0  0  0  0  0  0  0  0
  -17.7381   35.5303  -14.0826 C   0  0  0  0  0  0  0  0  0  0  0  0
  -19.0585   33.5898  -18.5664 N   0  0  0  0  0  0  0  0  0  0  0  0
  -17.4876   35.0950  -18.0591 C   0  0  0  0  0  0  0  0  0  0  0  0
  -18.9810   36.7927  -12.9623 C   0  0  0  0  0  0  0  0  0  0  0  0
  -17.7606   36.7402  -13.5725 N   0  0  0  0  0  0  0  0  0  0  0  0
  -18.1034   33.6942  -19.4975 C   0  0  0  0  0  0  0  0  0  0  0  0
  -17.1180   34.5955  -19.2152 N   0  0  0  0  0  0  0  0  0  0  0  0
  -23.5073   30.6299  -15.3501 H   0  0  0  0  0  0  0  0  0  0  0  0
  -21.7799   35.1118  -16.6191 H   0  0  0  0  0  0  0  0  0  0  0  0
  -24.1759   34.5779  -16.8762 H   0  0  0  0  0  0  0  0  0  0  0  0
  -18.6602   31.7941  -15.5160 H   0  0  0  0  0  0  0  0  0  0  0  0
  -18.4870   32.8769  -13.9456 H   0  0  0  0  0  0  0  0  0  0  0  0
  -20.1431   33.3049  -13.4995 H   0  0  0  0  0  0  0  0  0  0  0  0
  -18.8182   35.4464  -15.8526 H   0  0  0  0  0  0  0  0  0  0  0  0
  -20.3200   35.2455  -16.7712 H   0  0  0  0  0  0  0  0  0  0  0  0
  -16.9358   35.0844  -14.6540 H   0  0  0  0  0  0  0  0  0  0  0  0
  -16.9697   35.8567  -17.4918 H   0  0  0  0  0  0  0  0  0  0  0  0
  -19.3411   37.6628  -12.4285 H   0  0  0  0  0  0  0  0  0  0  0  0
  -18.1213   33.0964  -20.4005 H   0  0  0  0  0  0  0  0  0  0  0  0
  1  2  1  0  0  0  0
  2  3  2  0  0  0  0
  2  4  1  0  0  0  0
  3  5  1  0  0  0  0
  3  6  1  0  0  0  0
  4  7  2  0  0  0  0
  4 23  1  0  0  0  0
  5  8  2  0  0  0  0
  5 24  1  0  0  0  0
  6  9  1  0  0  0  0
  6 10  1  0  0  0  0
  6 11  1  0  0  0  0
  7 12  1  0  0  0  0
  7  8  1  0  0  0  0
  8 25  1  0  0  0  0
  9 26  1  0  0  0  0
 10 13  1  0  0  0  0
 10 27  1  0  0  0  0
 10 28  1  0  0  0  0
 11 14  1  0  0  0  0
 11 29  1  0  0  0  0
 11 30  1  0  0  0  0
 13 15  1  0  0  0  0
 13 16  1  0  0  0  0
 14 17  1  0  0  0  0
 14 18  1  0  0  0  0
 15 19  2  0  0  0  0
 16 20  2  0  0  0  0
 16 31  1  0  0  0  0
 17 21  2  0  0  0  0
 18 22  2  0  0  0  0
 18 32  1  0  0  0  0
 19 20  1  0  0  0  0
 19 33  1  0  0  0  0
 21 22  1  0  0  0  0
 21 34  1  0  0  0  0
M  END
>  <Column 1>
OC(Cn1cncn1)(Cn1cncn1)c1ccc(F)cc1F ZINC000000004009

>  <Total Molweight>
306.275

>  <cLogP>
-0.1089

>  <cLogS>
-2.175

>  <H-Acceptors>
7

>  <H-Donors>
1

>  <Total Surface Area>
223.2

>  <MMFF94 Energy>
27.662

> <Gold.Version>
5.8.1

> <Gold.Id.Protein>
ID|2FQT|mol2

> <Gold.PLP.Fitness>
65.0553

> <Gold.PLP.PLP>
-59.5373

> <Gold.PLP.part.hbond>
-2.9914

> <Gold.PLP.part.metal>
0.0000

> <Gold.PLP.part.buried>
-8.1014

> <Gold.PLP.part.nonpolar>
-48.5829

> <Gold.PLP.part.repulsive>
0.3240

> <Gold.PLP.ligand.clash>
0.0000

> <Gold.PLP.ligand.torsion>
2.7909

> <Gold.PLP.Chemscore.Hbond>
2.0000

> <Gold.PLP.Chemscore.CHOScore>
1.6384

> <Gold.PLP.Chemscore.Metal>
0.0000

> <Gold.Chemscore.Hbonds>
donor molecule, donor type, donor heavy atom, donor atom, acceptor molecule, acceptor atom, score
      L1  H     9    26       P1   606  1.00
      P1  H  1912  4380       L1    17  1.00
      L1  C    16    31       P1   595  1.00
      L1  C    21    34       P1  1237  0.64

> <Gold.PLP.Chemscore.Internal.Correction>
0.1843

> <Gold.Protein.RotatedTorsions>
[ 3412  950  949  948 ] final   65.27 input   60.00 | X-H torsion
[ 3476 1244 1243 1240 ] final  -64.60 input   60.00 | X-H torsion
[ 2649 1223 1224 1225 ] final -142.70 input   60.00 | X-H torsion
[ 4380 1912 1911 1909 ] final  107.72 input   60.00 | X-H torsion
[ 3084  621  620  617 ] final   52.15 input   60.00 | X-H torsion

> <Gold.Protein.ActiveResidues>
 HIS54   GLU57   HIS58   ALA61   PHE62   ILE64   ARG65   ASP75   ILE76   ILE77  
 ASP78   ILE79   SER80   PRO81   ILE118  PRO119  ALA120  ALA121  ASN122  LYS124 
 GLN125  CYS126  GLY127  CO701   VAL4    GLU5    SER6    PHE7    GLU8    LEU9   
 HIS11   ARG20   HIS21   CYS22   GLY23   VAL24   HIS25   LYS35   ARG39   MET82  
 GLY83   CYS84   TYR89  

> <Gold.Protein.RotatedAtoms>
  -21.5471   37.9478  -16.1443 H   0  0  0  0  0  0  0  0  0  0  0  0  # atno 2649 bound_to 1223
  -20.7019   37.3648  -17.4453 H   0  0  0  0  0  0  0  0  0  0  0  0  # atno 2650 bound_to 1223
  -18.6115   28.7601  -12.8896 H   0  0  0  0  0  0  0  0  0  0  0  0  # atno 3084 bound_to 621 
  -28.0654   37.5724  -28.4478 H   0  0  0  0  0  0  0  0  0  0  0  0  # atno 3412 bound_to 950 
  -27.8206   38.8091  -29.5239 H   0  0  0  0  0  0  0  0  0  0  0  0  # atno 3413 bound_to 950 
  -28.9445   38.9714  -28.3165 H   0  0  0  0  0  0  0  0  0  0  0  0  # atno 3414 bound_to 950 
  -24.3732   32.6112  -20.6983 H   0  0  0  0  0  0  0  0  0  0  0  0  # atno 3476 bound_to 1244
  -20.0389   31.9428  -19.1583 H   0  0  0  0  0  0  0  0  0  0  0  0  # atno 4380 bound_to 1912
  -23.5670   31.5928  -19.7180 LP  0  0  0  0  0  0  0  0  0  0  0  0  # atno 4866 bound_to 1244
  -23.0479   31.8421  -21.2461 LP  0  0  0  0  0  0  0  0  0  0  0  0  # atno 4867 bound_to 1244
  -20.3782   38.8646  -16.8514 LP  0  0  0  0  0  0  0  0  0  0  0  0  # atno 4874 bound_to 1223
  -21.2532   30.8724  -19.3250 LP  0  0  0  0  0  0  0  0  0  0  0  0  # atno 4875 bound_to 1912
  -20.1461   31.0469  -20.5126 LP  0  0  0  0  0  0  0  0  0  0  0  0  # atno 4876 bound_to 1912
  -19.7411   28.0306  -13.8062 LP  0  0  0  0  0  0  0  0  0  0  0  0  # atno 4881 bound_to 621 
  -18.2310   27.4148  -13.7223 LP  0  0  0  0  0  0  0  0  0  0  0  0  # atno 4882 bound_to 621 

$$$$
Compound 39|Decoys_protonated|sdf|39|dock2
  -GOLD-   6122416163D 1   1.00000     0.00000

 16 16  0  0  0  0  0  0  0  0  1 V2000
  -19.1527   32.2913  -16.3048 N   0  0  0  0  0  0  0  0  0  0  0  0
  -20.5219   32.2187  -16.0329 C   0  0  0  0  0  0  0  0  0  0  0  0
  -21.0237   31.2798  -15.1060 C   0  0  0  0  0  0  0  0  0  0  0  0
  -21.3917   33.1633  -16.5880 C   0  0  0  0  0  0  0  0  0  0  0  0
  -20.1726   30.3522  -14.4984 N   0  0  0  0  0  0  0  0  0  0  0  0
  -22.4038   31.2017  -14.8913 C   0  0  0  0  0  0  0  0  0  0  0  0
  -22.7615   33.1089  -16.3257 C   0  0  0  0  0  0  0  0  0  0  0  0
  -23.2696   32.1170  -15.4919 C   0  0  0  0  0  0  0  0  0  0  0  0
  -18.5347   31.6549  -15.8207 H   0  0  0  0  0  0  0  0  0  0  0  0
  -18.7920   33.2160  -16.4998 H   0  0  0  0  0  0  0  0  0  0  0  0
  -21.0105   33.9357  -17.2496 H   0  0  0  0  0  0  0  0  0  0  0  0
  -19.1992   30.4067  -14.7681 H   0  0  0  0  0  0  0  0  0  0  0  0
  -20.3657   30.0793  -13.5447 H   0  0  0  0  0  0  0  0  0  0  0  0
  -22.8127   30.4400  -14.2340 H   0  0  0  0  0  0  0  0  0  0  0  0
  -23.4304   33.8347  -16.7802 H   0  0  0  0  0  0  0  0  0  0  0  0
  -24.3376   32.0602  -15.3001 H   0  0  0  0  0  0  0  0  0  0  0  0
  1  2  1  0  0  0  0
  1  9  1  0  0  0  0
  1 10  1  0  0  0  0
  2  3  2  0  0  0  0
  2  4  1  0  0  0  0
  3  5  1  0  0  0  0
  3  6  1  0  0  0  0
  4  7  2  0  0  0  0
  4 11  1  0  0  0  0
  5 12  1  0  0  0  0
  5 13  1  0  0  0  0
  6  8  2  0  0  0  0
  6 14  1  0  0  0  0
  7  8  1  0  0  0  0
  7 15  1  0  0  0  0
  8 16  1  0  0  0  0
M  END
>  <Column 1>
Nc1ccccc1N ZINC000000004316

>  <Total Molweight>
108.144

>  <cLogP>
0.305

>  <cLogS>
-1.768

>  <H-Acceptors>
2

>  <H-Donors>
2

>  <Total Surface Area>
90.3

>  <MMFF94 Energy>
17.743

> <Gold.Version>
5.8.1

> <Gold.Id.Protein>
ID|2FQT|mol2

> <Gold.PLP.Fitness>
31.8550

> <Gold.PLP.PLP>
-22.8813

> <Gold.PLP.part.hbond>
-4.0000

> <Gold.PLP.part.metal>
0.0000

> <Gold.PLP.part.buried>
-4.6111

> <Gold.PLP.part.nonpolar>
-15.5007

> <Gold.PLP.part.repulsive>
0.1834

> <Gold.PLP.ligand.clash>
0.0000

> <Gold.PLP.ligand.torsion>
0.0000

> <Gold.PLP.Chemscore.Hbond>
2.9913

> <Gold.PLP.Chemscore.CHOScore>
0.0000

> <Gold.PLP.Chemscore.Metal>
0.0000

> <Gold.Chemscore.Hbonds>
donor molecule, donor type, donor heavy atom, donor atom, acceptor molecule, acceptor atom, score
      L1  H     1     9       P1   606  1.00
      L1  H     5    12       P1   606  0.99
      L1  H     5    13       P1   611  1.00

> <Gold.PLP.Chemscore.Internal.Correction>
0.0000

> <Gold.Protein.RotatedTorsions>
[ 3412  950  949  948 ] final  -83.21 input   60.00 | X-H torsion
[ 3476 1244 1243 1240 ] final  -39.64 input   60.00 | X-H torsion
[ 2649 1223 1224 1225 ] final -114.52 input   60.00 | X-H torsion
[ 4380 1912 1911 1909 ] final -178.71 input   60.00 | X-H torsion
[ 3084  621  620  617 ] final  132.03 input   60.00 | X-H torsion

> <Gold.Protein.ActiveResidues>
 HIS54   GLU57   HIS58   ALA61   PHE62   ILE64   ARG65   ASP75   ILE76   ILE77  
 ASP78   ILE79   SER80   PRO81   ILE118  PRO119  ALA120  ALA121  ASN122  LYS124 
 GLN125  CYS126  GLY127  CO701   VAL4    GLU5    SER6    PHE7    GLU8    LEU9   
 HIS11   ARG20   HIS21   CYS22   GLY23   VAL24   HIS25   LYS35   ARG39   MET82  
 GLY83   CYS84   TYR89  

> <Gold.Protein.RotatedAtoms>
  -21.5583   37.5497  -16.3862 H   0  0  0  0  0  0  0  0  0  0  0  0  # atno 2649 bound_to 1223
  -20.4003   37.7002  -17.5624 H   0  0  0  0  0  0  0  0  0  0  0  0  # atno 2650 bound_to 1223
  -17.9649   27.8431  -13.3208 H   0  0  0  0  0  0  0  0  0  0  0  0  # atno 3084 bound_to 621 
  -28.7963   39.2489  -28.6667 H   0  0  0  0  0  0  0  0  0  0  0  0  # atno 3412 bound_to 950 
  -28.4005   37.7234  -28.1535 H   0  0  0  0  0  0  0  0  0  0  0  0  # atno 3413 bound_to 950 
  -27.6338   38.3805  -29.4678 H   0  0  0  0  0  0  0  0  0  0  0  0  # atno 3414 bound_to 950 
  -24.1814   32.6162  -21.0544 H   0  0  0  0  0  0  0  0  0  0  0  0  # atno 3476 bound_to 1244
  -19.7446   31.5690  -20.1737 H   0  0  0  0  0  0  0  0  0  0  0  0  # atno 4380 bound_to 1912
  -23.9005   31.8203  -19.6631 LP  0  0  0  0  0  0  0  0  0  0  0  0  # atno 4866 bound_to 1244
  -22.9076   31.6097  -20.9424 LP  0  0  0  0  0  0  0  0  0  0  0  0  # atno 4867 bound_to 1244
  -20.6643   38.9264  -16.4976 LP  0  0  0  0  0  0  0  0  0  0  0  0  # atno 4874 bound_to 1223
  -20.6375   31.6712  -18.8171 LP  0  0  0  0  0  0  0  0  0  0  0  0  # atno 4875 bound_to 1912
  -21.0582   30.6246  -19.9980 LP  0  0  0  0  0  0  0  0  0  0  0  0  # atno 4876 bound_to 1912
  -19.2301   28.8317  -13.0561 LP  0  0  0  0  0  0  0  0  0  0  0  0  # atno 4881 bound_to 621 
  -19.3932   27.5372  -14.0382 LP  0  0  0  0  0  0  0  0  0  0  0  0  # atno 4882 bound_to 621 

$$$$
Compound 40|Decoys_protonated|sdf|40|dock8
  -GOLD-   6122416163D 1   1.00000     0.00000

 22 23  0  0  0  0  0  0  0  0  1 V2000
  -25.8853   29.3895  -20.2933 S   0  0  0  0  0  0  0  0  0  0  0  0
  -27.2184   29.1378  -19.7937 O   0  0  0  0  0  0  0  0  0  0  0  0
  -25.3532   28.7050  -21.4478 O   0  0  0  0  0  0  0  0  0  0  0  0
  -25.9114   31.0136  -20.7427 N   0  0  0  0  0  0  0  0  0  0  0  0
  -24.7033   29.3992  -18.9417 C   0  0  0  0  0  0  0  0  0  0  0  0
  -24.9986   30.4663  -17.9566 C   0  0  0  0  0  0  0  0  0  0  0  0
  -26.2037   31.0570  -17.9628 N   0  0  0  0  0  0  0  0  0  0  0  0
  -24.1852   30.9631  -16.9026 C   0  0  0  0  0  0  0  0  0  0  0  0
  -26.1811   31.9754  -16.9274 O   0  0  0  0  0  0  0  0  0  0  0  0
  -24.9818   31.9165  -16.2924 C   0  0  0  0  0  0  0  0  0  0  0  0
  -22.8975   30.7338  -16.3869 C   0  0  0  0  0  0  0  0  0  0  0  0
  -24.5961   32.6818  -15.1951 C   0  0  0  0  0  0  0  0  0  0  0  0
  -22.4754   31.4881  -15.2813 C   0  0  0  0  0  0  0  0  0  0  0  0
  -23.3107   32.4447  -14.6975 C   0  0  0  0  0  0  0  0  0  0  0  0
  -26.0798   31.0902  -21.7483 H   0  0  0  0  0  0  0  0  0  0  0  0
  -25.0391   31.4612  -20.4502 H   0  0  0  0  0  0  0  0  0  0  0  0
  -24.7477   28.4091  -18.4754 H   0  0  0  0  0  0  0  0  0  0  0  0
  -23.7097   29.5420  -19.3782 H   0  0  0  0  0  0  0  0  0  0  0  0
  -22.2288   30.0007  -16.8298 H   0  0  0  0  0  0  0  0  0  0  0  0
  -25.2583   33.4180  -14.7563 H   0  0  0  0  0  0  0  0  0  0  0  0
  -21.4779   31.3274  -14.8762 H   0  0  0  0  0  0  0  0  0  0  0  0
  -22.9551   33.0165  -13.8424 H   0  0  0  0  0  0  0  0  0  0  0  0
  1  2  2  0  0  0  0
  1  3  2  0  0  0  0
  1  4  1  0  0  0  0
  1  5  1  0  0  0  0
  4 15  1  0  0  0  0
  4 16  1  0  0  0  0
  5  6  1  0  0  0  0
  5 17  1  0  0  0  0
  5 18  1  0  0  0  0
  6  7  2  0  0  0  0
  6  8  1  0  0  0  0
  7  9  1  0  0  0  0
  8 10  2  0  0  0  0
  8 11  1  0  0  0  0
  9 10  1  0  0  0  0
 10 12  1  0  0  0  0
 11 13  2  0  0  0  0
 11 19  1  0  0  0  0
 12 14  2  0  0  0  0
 12 20  1  0  0  0  0
 13 14  1  0  0  0  0
 13 21  1  0  0  0  0
 14 22  1  0  0  0  0
M  END
>  <Column 1>
NS(=O)(=O)Cc1noc2ccccc12 ZINC000000004321

>  <Total Molweight>
212.229

>  <cLogP>
0.4386

>  <cLogS>
-3.472

>  <H-Acceptors>
5

>  <H-Donors>
1

>  <Total Surface Area>
147.17

>  <MMFF94 Energy>
-50.221

> <Gold.Version>
5.8.1

> <Gold.Id.Protein>
ID|2FQT|mol2

> <Gold.PLP.Fitness>
56.4926

> <Gold.PLP.PLP>
-35.1887

> <Gold.PLP.part.hbond>
-4.4788

> <Gold.PLP.part.metal>
-1.3218

> <Gold.PLP.part.buried>
1.6034

> <Gold.PLP.part.nonpolar>
-31.9795

> <Gold.PLP.part.repulsive>
1.1909

> <Gold.PLP.ligand.clash>
0.0000

> <Gold.PLP.ligand.torsion>
0.3777

> <Gold.PLP.Chemscore.Hbond>
3.9000

> <Gold.PLP.Chemscore.CHOScore>
0.0000

> <Gold.PLP.Chemscore.Metal>
1.6973

> <Gold.Chemscore.Hbonds>
donor molecule, donor type, donor heavy atom, donor atom, acceptor molecule, acceptor atom, score
      L1  H     4    15       P1  1290  0.90
      L1  H     4    16       P1  1244  1.00
      P1  H   966  3428       L1     2  1.00
      P1  H  1504  3991       L1     3  1.00
      P1  M  1222  1222       L1     2  1.00
      P1  M  1222  1222       L1     7  0.70

> <Gold.PLP.Chemscore.Internal.Correction>
0.1755

> <Gold.Protein.RotatedTorsions>
[ 3412  950  949  948 ] final -143.30 input   60.00 | X-H torsion
[ 3476 1244 1243 1240 ] final   53.91 input   60.00 | X-H torsion
[ 2649 1223 1224 1225 ] final  -85.67 input   60.00 | X-H torsion
[ 4380 1912 1911 1909 ] final -166.68 input   60.00 | X-H torsion
[ 3084  621  620  617 ] final   97.81 input   60.00 | X-H torsion

> <Gold.Protein.ActiveResidues>
 HIS54   GLU57   HIS58   ALA61   PHE62   ILE64   ARG65   ASP75   ILE76   ILE77  
 ASP78   ILE79   SER80   PRO81   ILE118  PRO119  ALA120  ALA121  ASN122  LYS124 
 GLN125  CYS126  GLY127  CO701   VAL4    GLU5    SER6    PHE7    GLU8    LEU9   
 HIS11   ARG20   HIS21   CYS22   GLY23   VAL24   HIS25   LYS35   ARG39   MET82  
 GLY83   CYS84   TYR89  

> <Gold.Protein.RotatedAtoms>
  -21.4014   37.2687  -16.7380 H   0  0  0  0  0  0  0  0  0  0  0  0  # atno 2649 bound_to 1223
  -20.2080   38.1318  -17.4983 H   0  0  0  0  0  0  0  0  0  0  0  0  # atno 2650 bound_to 1223
  -18.0674   28.2995  -13.0301 H   0  0  0  0  0  0  0  0  0  0  0  0  # atno 3084 bound_to 621 
  -28.1521   39.1777  -29.3726 H   0  0  0  0  0  0  0  0  0  0  0  0  # atno 3412 bound_to 950 
  -28.9203   38.5227  -28.0580 H   0  0  0  0  0  0  0  0  0  0  0  0  # atno 3413 bound_to 950 
  -27.7581   37.6524  -28.8575 H   0  0  0  0  0  0  0  0  0  0  0  0  # atno 3414 bound_to 950 
  -23.0633   31.8604  -21.2549 H   0  0  0  0  0  0  0  0  0  0  0  0  # atno 3476 bound_to 1244
  -19.8110   31.4377  -20.3036 H   0  0  0  0  0  0  0  0  0  0  0  0  # atno 4380 bound_to 1912
  -24.3871   32.6097  -20.6770 LP  0  0  0  0  0  0  0  0  0  0  0  0  # atno 4866 bound_to 1244
  -23.5470   31.5814  -19.7265 LP  0  0  0  0  0  0  0  0  0  0  0  0  # atno 4867 bound_to 1244
  -21.0084   38.7780  -16.2142 LP  0  0  0  0  0  0  0  0  0  0  0  0  # atno 4874 bound_to 1223
  -20.4755   31.7769  -18.8574 LP  0  0  0  0  0  0  0  0  0  0  0  0  # atno 4875 bound_to 1912
  -21.1534   30.6511  -19.8268 LP  0  0  0  0  0  0  0  0  0  0  0  0  # atno 4876 bound_to 1912
  -19.6320   28.6008  -13.3607 LP  0  0  0  0  0  0  0  0  0  0  0  0  # atno 4881 bound_to 621 
  -18.8880   27.3085  -14.0264 LP  0  0  0  0  0  0  0  0  0  0  0  0  # atno 4882 bound_to 621 

$$$$
Compound 41|Decoys_protonated|sdf|41|dock5
  -GOLD-   6122416163D 1   1.00000     0.00000

 27 28  0  0  0  0  0  0  0  0  1 V2000
  -20.1724   34.2951  -14.9857 O   0  0  0  0  0  0  0  0  0  0  0  0
  -21.1341   33.4993  -15.5425 C   0  0  0  0  0  0  0  0  0  0  0  0
  -19.3024   33.6854  -14.0404 C   0  0  0  0  0  0  0  0  0  0  0  0
  -21.2961   32.1335  -15.3290 C   0  0  0  0  0  0  0  0  0  0  0  0
  -22.0152   34.1576  -16.3990 C   0  0  0  0  0  0  0  0  0  0  0  0
  -22.3324   31.4374  -15.9694 C   0  0  0  0  0  0  0  0  0  0  0  0
  -23.0485   33.4602  -17.0368 C   0  0  0  0  0  0  0  0  0  0  0  0
  -23.2349   32.0802  -16.8388 C   0  0  0  0  0  0  0  0  0  0  0  0
  -24.3254   31.3402  -17.5108 C   0  0  0  0  0  0  0  0  0  0  0  0
  -24.5039   30.0611  -17.1782 N   0  0  0  0  0  0  0  0  0  0  0  0
  -25.0617   31.9980  -18.4070 N   0  0  0  0  0  0  0  0  0  0  0  0
  -25.4919   29.4529  -17.8109 C   0  0  0  0  0  0  0  0  0  0  0  0
  -26.0197   31.2857  -18.9736 C   0  0  0  0  0  0  0  0  0  0  0  0
  -26.2780   30.0148  -18.7140 N   0  0  0  0  0  0  0  0  0  0  0  0
  -25.7184   28.1408  -17.5076 N   0  0  0  0  0  0  0  0  0  0  0  0
  -26.8036   31.9122  -19.8996 N   0  0  0  0  0  0  0  0  0  0  0  0
  -19.8576   33.3232  -13.1690 H   0  0  0  0  0  0  0  0  0  0  0  0
  -18.5988   34.4482  -13.6932 H   0  0  0  0  0  0  0  0  0  0  0  0
  -18.7200   32.8807  -14.5015 H   0  0  0  0  0  0  0  0  0  0  0  0
  -20.6385   31.5735  -14.6727 H   0  0  0  0  0  0  0  0  0  0  0  0
  -21.8999   35.2245  -16.5749 H   0  0  0  0  0  0  0  0  0  0  0  0
  -22.4298   30.3691  -15.7795 H   0  0  0  0  0  0  0  0  0  0  0  0
  -23.7141   34.0133  -17.6977 H   0  0  0  0  0  0  0  0  0  0  0  0
  -25.1294   27.7003  -16.8234 H   0  0  0  0  0  0  0  0  0  0  0  0
  -26.4672   27.6677  -17.9825 H   0  0  0  0  0  0  0  0  0  0  0  0
  -26.6161   32.8779  -20.1045 H   0  0  0  0  0  0  0  0  0  0  0  0
  -27.5366   31.3839  -20.3394 H   0  0  0  0  0  0  0  0  0  0  0  0
  1  2  1  0  0  0  0
  1  3  1  0  0  0  0
  2  4  2  0  0  0  0
  2  5  1  0  0  0  0
  3 17  1  0  0  0  0
  3 18  1  0  0  0  0
  3 19  1  0  0  0  0
  4  6  1  0  0  0  0
  4 20  1  0  0  0  0
  5  7  2  0  0  0  0
  5 21  1  0  0  0  0
  6  8  2  0  0  0  0
  6 22  1  0  0  0  0
  7  8  1  0  0  0  0
  7 23  1  0  0  0  0
  8  9  1  0  0  0  0
  9 10  2  0  0  0  0
  9 11  1  0  0  0  0
 10 12  1  0  0  0  0
 11 13  2  0  0  0  0
 12 14  2  0  0  0  0
 12 15  1  0  0  0  0
 13 16  1  0  0  0  0
 13 14  1  0  0  0  0
 15 24  1  0  0  0  0
 15 25  1  0  0  0  0
 16 26  1  0  0  0  0
 16 27  1  0  0  0  0
M  END
>  <Column 1>
COc1ccc(-c2nc(N)nc(N)n2)cc1 ZINC000000004396

>  <Total Molweight>
217.231

>  <cLogP>
0.9301

>  <cLogS>
-3.846

>  <H-Acceptors>
6

>  <H-Donors>
2

>  <Total Surface Area>
168.6

>  <MMFF94 Energy>
-203.28

> <Gold.Version>
5.8.1

> <Gold.Id.Protein>
ID|2FQT|mol2

> <Gold.PLP.Fitness>
42.6461

> <Gold.PLP.PLP>
-34.1629

> <Gold.PLP.part.hbond>
-3.0250

> <Gold.PLP.part.metal>
-1.0000

> <Gold.PLP.part.buried>
-0.5566

> <Gold.PLP.part.nonpolar>
-30.2084

> <Gold.PLP.part.repulsive>
1.1354

> <Gold.PLP.ligand.clash>
0.0000

> <Gold.PLP.ligand.torsion>
0.0294

> <Gold.PLP.Chemscore.Hbond>
0.8501

> <Gold.PLP.Chemscore.CHOScore>
0.0000

> <Gold.PLP.Chemscore.Metal>
0.9986

> <Gold.Chemscore.Hbonds>
donor molecule, donor type, donor heavy atom, donor atom, acceptor molecule, acceptor atom, score
      L1  H    16    26       P1   954  0.10
      P1  H  1244  3476       L1    11  0.75
      P1  M  1222  1222       L1    14  1.00

> <Gold.PLP.Chemscore.Internal.Correction>
0.0000

> <Gold.Protein.RotatedTorsions>
[ 3412  950  949  948 ] final   37.16 input   60.00 | X-H torsion
[ 3476 1244 1243 1240 ] final -141.88 input   60.00 | X-H torsion
[ 2649 1223 1224 1225 ] final   97.12 input   60.00 | X-H torsion
[ 4380 1912 1911 1909 ] final   22.86 input   60.00 | X-H torsion
[ 3084  621  620  617 ] final  163.58 input   60.00 | X-H torsion

> <Gold.Protein.ActiveResidues>
 HIS54   GLU57   HIS58   ALA61   PHE62   ILE64   ARG65   ASP75   ILE76   ILE77  
 ASP78   ILE79   SER80   PRO81   ILE118  PRO119  ALA120  ALA121  ASN122  LYS124 
 GLN125  CYS126  GLY127  CO701   VAL4    GLU5    SER6    PHE7    GLU8    LEU9   
 HIS11   ARG20   HIS21   CYS22   GLY23   VAL24   HIS25   LYS35   ARG39   MET82  
 GLY83   CYS84   TYR89  

> <Gold.Protein.RotatedAtoms>
  -20.3659   38.8736  -16.8512 H   0  0  0  0  0  0  0  0  0  0  0  0  # atno 2649 bound_to 1223
  -21.5465   37.9506  -16.1432 H   0  0  0  0  0  0  0  0  0  0  0  0  # atno 2650 bound_to 1223
  -18.1464   27.4881  -13.6375 H   0  0  0  0  0  0  0  0  0  0  0  0  # atno 3084 bound_to 621 
  -28.3960   37.7201  -28.1565 H   0  0  0  0  0  0  0  0  0  0  0  0  # atno 3412 bound_to 950 
  -27.6353   38.3863  -29.4698 H   0  0  0  0  0  0  0  0  0  0  0  0  # atno 3413 bound_to 950 
  -28.7992   39.2463  -28.6617 H   0  0  0  0  0  0  0  0  0  0  0  0  # atno 3414 bound_to 950 
  -24.1099   32.0091  -19.7312 H   0  0  0  0  0  0  0  0  0  0  0  0  # atno 3476 bound_to 1244
  -21.0704   31.2469  -18.9401 H   0  0  0  0  0  0  0  0  0  0  0  0  # atno 4380 bound_to 1912
  -22.8933   31.4885  -20.6782 LP  0  0  0  0  0  0  0  0  0  0  0  0  # atno 4866 bound_to 1244
  -23.9867   32.5528  -21.2599 LP  0  0  0  0  0  0  0  0  0  0  0  0  # atno 4867 bound_to 1244
  -20.7098   37.3754  -17.4378 LP  0  0  0  0  0  0  0  0  0  0  0  0  # atno 4874 bound_to 1223
  -20.6108   30.7333  -20.4142 LP  0  0  0  0  0  0  0  0  0  0  0  0  # atno 4875 bound_to 1912
  -19.7498   31.8869  -19.6432 LP  0  0  0  0  0  0  0  0  0  0  0  0  # atno 4876 bound_to 1912
  -18.7418   28.8115  -12.9011 LP  0  0  0  0  0  0  0  0  0  0  0  0  # atno 4881 bound_to 621 
  -19.6988   27.9149  -13.8742 LP  0  0  0  0  0  0  0  0  0  0  0  0  # atno 4882 bound_to 621 

$$$$
Compound 42|Decoys_protonated|sdf|42|dock4
  -GOLD-   6122416163D 1   1.00000     0.00000

 30 32  0  0  0  0  0  0  0  0  2 V2000
  -17.9884   34.5944  -17.5309 O   0  0  0  0  0  0  0  0  0  0  0  0
  -18.6007   34.1070  -18.6486 C   0  0  0  0  0  0  0  0  0  0  0  0
  -19.0146   34.7877  -16.6441 C   0  0  0  0  0  0  0  0  0  0  0  0
  -19.8985   33.9780  -18.5429 N   0  0  0  0  0  0  0  0  0  0  0  0
  -17.8194   33.8271  -19.6809 N   0  0  0  0  0  0  0  0  0  0  0  0
  -20.1792   34.4173  -17.2775 C   0  0  0  0  0  0  0  0  0  0  0  0
  -18.6710   35.3323  -15.3082 C   0  0  2  0  0  0  0  0  0  0  0  0
  -18.9755   34.2946  -14.1978 C   0  0  0  0  0  0  0  0  0  0  0  0
  -19.4363   36.6124  -14.9769 C   0  0  0  0  0  0  0  0  0  0  0  0
  -17.2136   35.8338  -15.2280 C   0  0  0  0  0  0  0  0  0  0  0  0
  -18.6396   34.7969  -12.7862 C   0  0  0  0  0  0  0  0  0  0  0  0
  -18.6628   37.0925  -13.7683 N   0  3  2  0  0  0  0  0  0  0  0  0
  -17.2144   36.9656  -14.1953 C   0  0  0  0  0  0  0  0  0  0  0  0
  -19.0085   36.2621  -12.5532 C   0  0  0  0  0  0  0  0  0  0  0  0
  -16.8193   33.9600  -19.6633 H   0  0  0  0  0  0  0  0  0  0  0  0
  -18.2283   33.4885  -20.5432 H   0  0  0  0  0  0  0  0  0  0  0  0
  -21.1937   34.4398  -16.9021 H   0  0  0  0  0  0  0  0  0  0  0  0
  -20.0423   34.0334  -14.2296 H   0  0  0  0  0  0  0  0  0  0  0  0
  -18.4288   33.3606  -14.3818 H   0  0  0  0  0  0  0  0  0  0  0  0
  -19.3539   37.3902  -15.7460 H   0  0  0  0  0  0  0  0  0  0  0  0
  -20.4876   36.4747  -14.7020 H   0  0  0  0  0  0  0  0  0  0  0  0
  -16.5135   35.0378  -14.9500 H   0  0  0  0  0  0  0  0  0  0  0  0
  -16.8671   36.2338  -16.1899 H   0  0  0  0  0  0  0  0  0  0  0  0
  -19.1371   34.1673  -12.0396 H   0  0  0  0  0  0  0  0  0  0  0  0
  -17.5640   34.6664  -12.6131 H   0  0  0  0  0  0  0  0  0  0  0  0
  -18.8912   38.0775  -13.5731 H   0  0  0  0  0  0  0  0  0  0  0  0
  -16.5914   36.7732  -13.3170 H   0  0  0  0  0  0  0  0  0  0  0  0
  -16.9307   37.9216  -14.6473 H   0  0  0  0  0  0  0  0  0  0  0  0
  -20.0834   36.3840  -12.3822 H   0  0  0  0  0  0  0  0  0  0  0  0
  -18.4677   36.6861  -11.7010 H   0  0  0  0  0  0  0  0  0  0  0  0
  1  2  1  0  0  0  0
  1  3  1  0  0  0  0
  2  4  2  0  0  0  0
  2  5  1  0  0  0  0
  3  6  2  0  0  0  0
  4  6  1  0  0  0  0
  5 15  1  0  0  0  0
  5 16  1  0  0  0  0
  6 17  1  0  0  0  0
  7  3  1  0  0  0  0
  7  8  1  0  0  0  0
  7  9  1  0  0  0  0
  7 10  1  0  0  0  0
  8 11  1  0  0  0  0
  8 18  1  0  0  0  0
  8 19  1  0  0  0  0
  9 12  1  0  0  0  0
  9 20  1  0  0  0  0
  9 21  1  0  0  0  0
 10 13  1  0  0  0  0
 10 22  1  0  0  0  0
 10 23  1  0  0  0  0
 11 14  1  0  0  0  0
 11 24  1  0  0  0  0
 11 25  1  0  0  0  0
 12 13  1  0  0  0  0
 12 14  1  0  0  0  0
 12 26  1  0  0  0  0
 13 27  1  0  0  0  0
 13 28  1  0  0  0  0
 14 29  1  0  0  0  0
 14 30  1  0  0  0  0
M  CHG  1  12   1
M  END
>  <Column 1>
Nc1ncc([C@@]23CCC[N@@H+](CC2)C3)o1 ZINC000000004494

>  <Total Molweight>
194.257

>  <cLogP>
-1.4143

>  <cLogS>
-2.221

>  <H-Acceptors>
3

>  <H-Donors>
2

>  <Total Surface Area>
160.54

>  <MMFF94 Energy>
-22.419

> <Gold.Version>
5.8.1

> <Gold.Id.Protein>
ID|2FQT|mol2

> <Gold.PLP.Fitness>
41.1045

> <Gold.PLP.PLP>
-32.8766

> <Gold.PLP.part.hbond>
-3.8744

> <Gold.PLP.part.metal>
0.0000

> <Gold.PLP.part.buried>
-4.1736

> <Gold.PLP.part.nonpolar>
-25.1665

> <Gold.PLP.part.repulsive>
0.1691

> <Gold.PLP.ligand.clash>
0.0000

> <Gold.PLP.ligand.torsion>
0.1575

> <Gold.PLP.Chemscore.Hbond>
2.8300

> <Gold.PLP.Chemscore.CHOScore>
0.0000

> <Gold.PLP.Chemscore.Metal>
0.0000

> <Gold.Chemscore.Hbonds>
donor molecule, donor type, donor heavy atom, donor atom, acceptor molecule, acceptor atom, score
      L1  H     5    16       P1  1237  0.63
      P1  H  1912  4380       L1     4  0.91
      P1  H  1239  3336       L1     4  0.49
      P1  H  1466  3954       L1     1  0.80

> <Gold.PLP.Chemscore.Internal.Correction>
0.0530

> <Gold.Protein.RotatedTorsions>
[ 3412  950  949  948 ] final -173.06 input   60.00 | X-H torsion
[ 3476 1244 1243 1240 ] final -178.23 input   60.00 | X-H torsion
[ 2649 1223 1224 1225 ] final   20.72 input   60.00 | X-H torsion
[ 4380 1912 1911 1909 ] final   97.61 input   60.00 | X-H torsion
[ 3084  621  620  617 ] final -128.73 input   60.00 | X-H torsion

> <Gold.Protein.ActiveResidues>
 HIS54   GLU57   HIS58   ALA61   PHE62   ILE64   ARG65   ASP75   ILE76   ILE77  
 ASP78   ILE79   SER80   PRO81   ILE118  PRO119  ALA120  ALA121  ASN122  LYS124 
 GLN125  CYS126  GLY127  CO701   VAL4    GLU5    SER6    PHE7    GLU8    LEU9   
 HIS11   ARG20   HIS21   CYS22   GLY23   VAL24   HIS25   LYS35   ARG39   MET82  
 GLY83   CYS84   TYR89  

> <Gold.Protein.RotatedAtoms>
  -20.2803   37.9236  -17.5518 H   0  0  0  0  0  0  0  0  0  0  0  0  # atno 2649 bound_to 1223
  -20.8410   38.8837  -16.3227 H   0  0  0  0  0  0  0  0  0  0  0  0  # atno 2650 bound_to 1223
  -19.0972   27.3731  -14.0498 H   0  0  0  0  0  0  0  0  0  0  0  0  # atno 3084 bound_to 621 
  -27.8355   38.8324  -29.5213 H   0  0  0  0  0  0  0  0  0  0  0  0  # atno 3412 bound_to 950 
  -28.9484   38.9504  -28.2986 H   0  0  0  0  0  0  0  0  0  0  0  0  # atno 3413 bound_to 950 
  -28.0466   37.5700  -28.4682 H   0  0  0  0  0  0  0  0  0  0  0  0  # atno 3414 bound_to 950 
  -23.6515   31.6492  -19.6936 H   0  0  0  0  0  0  0  0  0  0  0  0  # atno 3476 bound_to 1244
  -20.1571   31.9151  -19.0467 H   0  0  0  0  0  0  0  0  0  0  0  0  # atno 4380 bound_to 1912
  -22.9998   31.7779  -21.1791 LP  0  0  0  0  0  0  0  0  0  0  0  0  # atno 4866 bound_to 1244
  -24.3419   32.6259  -20.7969 LP  0  0  0  0  0  0  0  0  0  0  0  0  # atno 4867 bound_to 1244
  -21.4893   37.3921  -16.5707 LP  0  0  0  0  0  0  0  0  0  0  0  0  # atno 4874 bound_to 1223
  -21.2522   30.7875  -19.4677 LP  0  0  0  0  0  0  0  0  0  0  0  0  # atno 4875 bound_to 1912
  -20.0281   31.1598  -20.4823 LP  0  0  0  0  0  0  0  0  0  0  0  0  # atno 4876 bound_to 1912
  -17.9832   28.1225  -13.1303 LP  0  0  0  0  0  0  0  0  0  0  0  0  # atno 4881 bound_to 621 
  -19.4998   28.7197  -13.2298 LP  0  0  0  0  0  0  0  0  0  0  0  0  # atno 4882 bound_to 621 

$$$$
Compound 43|Decoys_protonated|sdf|43|dock2
  -GOLD-   6122416163D 1   1.00000     0.00000

 30 32  0  0  0  0  0  0  0  0  1 V2000
  -18.5489   36.6920  -15.8973 O   0  0  0  0  0  0  0  0  0  0  0  0
  -18.9529   35.7429  -16.5569 C   0  0  0  0  0  0  0  0  0  0  0  0
  -18.2110   35.2118  -17.7022 C   0  0  0  0  0  0  0  0  0  0  0  0
  -20.2231   35.0754  -16.2306 C   0  0  0  0  0  0  0  0  0  0  0  0
  -18.7502   34.1320  -18.3881 C   0  0  0  0  0  0  0  0  0  0  0  0
  -16.9932   35.7724  -18.0979 C   0  0  0  0  0  0  0  0  0  0  0  0
  -20.6676   34.0332  -16.9537 C   0  0  0  0  0  0  0  0  0  0  0  0
  -19.9386   33.5465  -18.0417 O   0  0  0  0  0  0  0  0  0  0  0  0
  -18.0713   33.5991  -19.4843 C   0  0  0  0  0  0  0  0  0  0  0  0
  -16.3149   35.2391  -19.1943 C   0  0  0  0  0  0  0  0  0  0  0  0
  -21.8656   33.3505  -16.7054 N   0  0  0  0  0  0  0  0  0  0  0  0
  -16.8539   34.1530  -19.8867 C   0  0  0  0  0  0  0  0  0  0  0  0
  -21.9947   31.8808  -16.5954 C   0  0  0  0  0  0  0  0  0  0  0  0
  -23.1857   34.0171  -16.8196 C   0  0  0  0  0  0  0  0  0  0  0  0
  -23.0068   31.4981  -15.5046 C   0  0  0  0  0  0  0  0  0  0  0  0
  -24.1380   33.5417  -15.7143 C   0  0  0  0  0  0  0  0  0  0  0  0
  -24.2827   32.1148  -15.7227 O   0  0  0  0  0  0  0  0  0  0  0  0
  -20.7424   35.4880  -15.3796 H   0  0  0  0  0  0  0  0  0  0  0  0
  -16.5764   36.6184  -17.5560 H   0  0  0  0  0  0  0  0  0  0  0  0
  -18.4887   32.7540  -20.0252 H   0  0  0  0  0  0  0  0  0  0  0  0
  -15.3670   35.6696  -19.5082 H   0  0  0  0  0  0  0  0  0  0  0  0
  -16.3247   33.7377  -20.7413 H   0  0  0  0  0  0  0  0  0  0  0  0
  -22.3320   31.4947  -17.5646 H   0  0  0  0  0  0  0  0  0  0  0  0
  -21.0466   31.3948  -16.3513 H   0  0  0  0  0  0  0  0  0  0  0  0
  -23.6063   33.7681  -17.8013 H   0  0  0  0  0  0  0  0  0  0  0  0
  -23.1091   35.1073  -16.7571 H   0  0  0  0  0  0  0  0  0  0  0  0
  -22.6381   31.7814  -14.5113 H   0  0  0  0  0  0  0  0  0  0  0  0
  -23.1588   30.4140  -15.5053 H   0  0  0  0  0  0  0  0  0  0  0  0
  -23.7844   33.8604  -14.7263 H   0  0  0  0  0  0  0  0  0  0  0  0
  -25.1308   33.9758  -15.8685 H   0  0  0  0  0  0  0  0  0  0  0  0
  1  2  2  0  0  0  0
  2  3  1  0  0  0  0
  2  4  1  0  0  0  0
  3  5  2  0  0  0  0
  3  6  1  0  0  0  0
  4  7  2  0  0  0  0
  4 18  1  0  0  0  0
  5  8  1  0  0  0  0
  5  9  1  0  0  0  0
  6 10  2  0  0  0  0
  6 19  1  0  0  0  0
  7 11  1  0  0  0  0
  7  8  1  0  0  0  0
  9 12  2  0  0  0  0
  9 20  1  0  0  0  0
 10 12  1  0  0  0  0
 10 21  1  0  0  0  0
 11 13  1  0  0  0  0
 11 14  1  0  0  0  0
 12 22  1  0  0  0  0
 13 15  1  0  0  0  0
 13 23  1  0  0  0  0
 13 24  1  0  0  0  0
 14 16  1  0  0  0  0
 14 25  1  0  0  0  0
 14 26  1  0  0  0  0
 15 17  1  0  0  0  0
 15 27  1  0  0  0  0
 15 28  1  0  0  0  0
 16 17  1  0  0  0  0
 16 29  1  0  0  0  0
 16 30  1  0  0  0  0
M  END
>  <Column 1>
O=c1cc(N2CCOCC2)oc2ccccc12 ZINC000000004590

>  <Total Molweight>
231.25

>  <cLogP>
1.7884

>  <cLogS>
-3.346

>  <H-Acceptors>
4

>  <H-Donors>
0

>  <Total Surface Area>
174.06

>  <MMFF94 Energy>
86.251

> <Gold.Version>
5.8.1

> <Gold.Id.Protein>
ID|2FQT|mol2

> <Gold.PLP.Fitness>
48.4917

> <Gold.PLP.PLP>
-47.5296

> <Gold.PLP.part.hbond>
-1.7687

> <Gold.PLP.part.metal>
0.0000

> <Gold.PLP.part.buried>
-4.2200

> <Gold.PLP.part.nonpolar>
-41.3195

> <Gold.PLP.part.repulsive>
0.1588

> <Gold.PLP.ligand.clash>
0.0000

> <Gold.PLP.ligand.torsion>
1.0403

> <Gold.PLP.Chemscore.Hbond>
1.0000

> <Gold.PLP.Chemscore.CHOScore>
0.0000

> <Gold.PLP.Chemscore.Metal>
0.0000

> <Gold.Chemscore.Hbonds>
donor molecule, donor type, donor heavy atom, donor atom, acceptor molecule, acceptor atom, score
      P1  H  1912  4380       L1     8  1.00

> <Gold.PLP.Chemscore.Internal.Correction>
0.0427

> <Gold.Protein.RotatedTorsions>
[ 3412  950  949  948 ] final  -35.44 input   60.00 | X-H torsion
[ 3476 1244 1243 1240 ] final   98.09 input   60.00 | X-H torsion
[ 2649 1223 1224 1225 ] final   51.08 input   60.00 | X-H torsion
[ 4380 1912 1911 1909 ] final  105.06 input   60.00 | X-H torsion
[ 3084  621  620  617 ] final  -13.15 input   60.00 | X-H torsion

> <Gold.Protein.ActiveResidues>
 HIS54   GLU57   HIS58   ALA61   PHE62   ILE64   ARG65   ASP75   ILE76   ILE77  
 ASP78   ILE79   SER80   PRO81   ILE118  PRO119  ALA120  ALA121  ASN122  LYS124 
 GLN125  CYS126  GLY127  CO701   VAL4    GLU5    SER6    PHE7    GLU8    LEU9   
 HIS11   ARG20   HIS21   CYS22   GLY23   VAL24   HIS25   LYS35   ARG39   MET82  
 GLY83   CYS84   TYR89  

> <Gold.Protein.RotatedAtoms>
  -20.1706   38.3814  -17.3800 H   0  0  0  0  0  0  0  0  0  0  0  0  # atno 2649 bound_to 1223
  -21.1997   38.6125  -16.1016 H   0  0  0  0  0  0  0  0  0  0  0  0  # atno 2650 bound_to 1223
  -19.5433   28.6788  -13.2712 H   0  0  0  0  0  0  0  0  0  0  0  0  # atno 3084 bound_to 621 
  -28.9537   38.7062  -28.1363 H   0  0  0  0  0  0  0  0  0  0  0  0  # atno 3412 bound_to 950 
  -27.8629   37.5907  -28.6958 H   0  0  0  0  0  0  0  0  0  0  0  0  # atno 3413 bound_to 950 
  -28.0139   39.0558  -29.4560 H   0  0  0  0  0  0  0  0  0  0  0  0  # atno 3414 bound_to 950 
  -22.8974   31.4942  -20.6770 H   0  0  0  0  0  0  0  0  0  0  0  0  # atno 3476 bound_to 1244
  -20.0688   31.9375  -19.1273 H   0  0  0  0  0  0  0  0  0  0  0  0  # atno 4380 bound_to 1912
  -23.9871   32.5530  -21.2596 LP  0  0  0  0  0  0  0  0  0  0  0  0  # atno 4866 bound_to 1244
  -24.1141   32.0070  -19.7259 LP  0  0  0  0  0  0  0  0  0  0  0  0  # atno 4867 bound_to 1244
  -21.2439   37.2082  -16.9577 LP  0  0  0  0  0  0  0  0  0  0  0  0  # atno 4874 bound_to 1223
  -21.2553   30.8487  -19.3617 LP  0  0  0  0  0  0  0  0  0  0  0  0  # atno 4875 bound_to 1912
  -20.1139   31.0760  -20.5071 LP  0  0  0  0  0  0  0  0  0  0  0  0  # atno 4876 bound_to 1912
  -19.0301   27.3450  -14.0496 LP  0  0  0  0  0  0  0  0  0  0  0  0  # atno 4881 bound_to 621 
  -18.0037   28.1823  -13.0947 LP  0  0  0  0  0  0  0  0  0  0  0  0  # atno 4882 bound_to 621 

$$$$
Compound 44|Decoys_protonated|sdf|44|dock6
  -GOLD-   6122416163D 1   1.00000     0.00000

 22 23  0  0  0  0  0  0  0  0  2 V2000
  -24.0497   29.6659  -19.3111 O   0  0  0  0  0  0  0  0  0  0  0  0
  -24.9323   30.2119  -18.3946 C   0  0  0  0  0  0  0  0  0  0  0  0
  -24.8291   29.1399  -20.2934 C   0  0  0  0  0  0  0  0  0  0  0  0
  -26.1922   30.0420  -18.7674 N   0  0  0  0  0  0  0  0  0  0  0  0
  -24.4626   30.8663  -17.2068 C   0  0  0  0  0  0  0  0  0  0  0  0
  -26.1355   29.3698  -19.9611 C   0  0  0  0  0  0  0  0  0  0  0  0
  -25.3004   31.7151  -16.5698 C   0  0  0  0  0  0  0  0  0  0  0  0
  -23.0790   30.6144  -16.6687 C   0  0  0  0  0  0  0  0  0  0  0  0
  -24.9249   32.4888  -15.3354 C   0  0  0  0  0  0  0  0  0  0  0  0
  -22.8941   31.0843  -15.2536 N   0  3  0  0  0  0  0  0  0  0  0  0
  -23.4245   32.4650  -15.0363 C   0  0  0  0  0  0  0  0  0  0  0  0
  -24.3215   28.6604  -21.1178 H   0  0  0  0  0  0  0  0  0  0  0  0
  -27.0280   29.0931  -20.5064 H   0  0  0  0  0  0  0  0  0  0  0  0
  -26.3118   31.8818  -16.9472 H   0  0  0  0  0  0  0  0  0  0  0  0
  -22.3278   31.1329  -17.2746 H   0  0  0  0  0  0  0  0  0  0  0  0
  -22.8462   29.5447  -16.6534 H   0  0  0  0  0  0  0  0  0  0  0  0
  -25.4772   32.0679  -14.4868 H   0  0  0  0  0  0  0  0  0  0  0  0
  -25.2488   33.5299  -15.4441 H   0  0  0  0  0  0  0  0  0  0  0  0
  -21.8989   31.0368  -15.0033 H   0  0  0  0  0  0  0  0  0  0  0  0
  -23.3857   30.4312  -14.6295 H   0  0  0  0  0  0  0  0  0  0  0  0
  -23.2184   32.7328  -13.9958 H   0  0  0  0  0  0  0  0  0  0  0  0
  -22.8633   33.1338  -15.6980 H   0  0  0  0  0  0  0  0  0  0  0  0
  1  2  1  0  0  0  0
  1  3  1  0  0  0  0
  2  4  2  0  0  0  0
  2  5  1  0  0  0  0
  3  6  2  0  0  0  0
  3 12  1  0  0  0  0
  4  6  1  0  0  0  0
  5  7  2  0  0  0  0
  5  8  1  0  0  0  0
  6 13  1  0  0  0  0
  7  9  1  0  0  0  0
  7 14  1  0  0  0  0
  8 10  1  0  0  0  0
  8 15  1  0  0  0  0
  8 16  1  0  0  0  0
  9 11  1  0  0  0  0
  9 17  1  0  0  0  0
  9 18  1  0  0  0  0
 10 11  1  0  0  0  0
 10 19  1  0  0  0  0
 10 20  1  0  0  0  0
 11 21  1  0  0  0  0
 11 22  1  0  0  0  0
M  CHG  1  10   1
M  END
>  <Column 1>
C1=C(c2ncco2)C[NH2+]CC1 ZINC000000004597

>  <Total Molweight>
151.188

>  <cLogP>
-0.0749

>  <cLogS>
-0.587

>  <H-Acceptors>
2

>  <H-Donors>
1

>  <Total Surface Area>
121.94

>  <MMFF94 Energy>
13.117

> <Gold.Version>
5.8.1

> <Gold.Id.Protein>
ID|2FQT|mol2

> <Gold.PLP.Fitness>
41.8435

> <Gold.PLP.PLP>
-34.1873

> <Gold.PLP.part.hbond>
-1.3530

> <Gold.PLP.part.metal>
-1.0000

> <Gold.PLP.part.buried>
-2.9425

> <Gold.PLP.part.nonpolar>
-29.4349

> <Gold.PLP.part.repulsive>
0.0563

> <Gold.PLP.ligand.clash>
0.0000

> <Gold.PLP.ligand.torsion>
0.1744

> <Gold.PLP.Chemscore.Hbond>
0.7296

> <Gold.PLP.Chemscore.CHOScore>
0.0000

> <Gold.PLP.Chemscore.Metal>
0.9693

> <Gold.Chemscore.Hbonds>
donor molecule, donor type, donor heavy atom, donor atom, acceptor molecule, acceptor atom, score
      P1  H  1244  3476       L1     1  0.73
      P1  M  1222  1222       L1     4  0.97

> <Gold.PLP.Chemscore.Internal.Correction>
0.0001

> <Gold.Protein.RotatedTorsions>
[ 3412  950  949  948 ] final   12.89 input   60.00 | X-H torsion
[ 3476 1244 1243 1240 ] final  144.61 input   60.00 | X-H torsion
[ 2649 1223 1224 1225 ] final  174.31 input   60.00 | X-H torsion
[ 4380 1912 1911 1909 ] final  -77.35 input   60.00 | X-H torsion
[ 3084  621  620  617 ] final  169.92 input   60.00 | X-H torsion

> <Gold.Protein.ActiveResidues>
 HIS54   GLU57   HIS58   ALA61   PHE62   ILE64   ARG65   ASP75   ILE76   ILE77  
 ASP78   ILE79   SER80   PRO81   ILE118  PRO119  ALA120  ALA121  ASN122  LYS124 
 GLN125  CYS126  GLY127  CO701   VAL4    GLU5    SER6    PHE7    GLU8    LEU9   
 HIS11   ARG20   HIS21   CYS22   GLY23   VAL24   HIS25   LYS35   ARG39   MET82  
 GLY83   CYS84   TYR89  

> <Gold.Protein.RotatedAtoms>
  -21.2343   38.5729  -16.0889 H   0  0  0  0  0  0  0  0  0  0  0  0  # atno 2649 bound_to 1223
  -21.2119   37.1873  -16.9981 H   0  0  0  0  0  0  0  0  0  0  0  0  # atno 2650 bound_to 1223
  -18.2112   27.4350  -13.6981 H   0  0  0  0  0  0  0  0  0  0  0  0  # atno 3084 bound_to 621 
  -28.6618   37.9889  -28.0183 H   0  0  0  0  0  0  0  0  0  0  0  0  # atno 3412 bound_to 950 
  -27.5963   38.0297  -29.2874 H   0  0  0  0  0  0  0  0  0  0  0  0  # atno 3413 bound_to 950 
  -28.5724   39.3341  -28.9824 H   0  0  0  0  0  0  0  0  0  0  0  0  # atno 3414 bound_to 950 
  -23.1893   31.4304  -20.0006 H   0  0  0  0  0  0  0  0  0  0  0  0  # atno 3476 bound_to 1244
  -20.8583   30.6442  -20.2266 H   0  0  0  0  0  0  0  0  0  0  0  0  # atno 4380 bound_to 1912
  -23.3751   32.1684  -21.4389 LP  0  0  0  0  0  0  0  0  0  0  0  0  # atno 4866 bound_to 1244
  -24.4322   32.4558  -20.2279 LP  0  0  0  0  0  0  0  0  0  0  0  0  # atno 4867 bound_to 1244
  -20.1839   38.4237  -17.3464 LP  0  0  0  0  0  0  0  0  0  0  0  0  # atno 4874 bound_to 1223
  -19.7019   31.7509  -19.9334 LP  0  0  0  0  0  0  0  0  0  0  0  0  # atno 4875 bound_to 1912
  -20.8723   31.4762  -18.8283 LP  0  0  0  0  0  0  0  0  0  0  0  0  # atno 4876 bound_to 1912
  -18.6433   28.7796  -12.8897 LP  0  0  0  0  0  0  0  0  0  0  0  0  # atno 4881 bound_to 621 
  -19.7319   28.0003  -13.8247 LP  0  0  0  0  0  0  0  0  0  0  0  0  # atno 4882 bound_to 621 

$$$$
Compound 45|Decoys_protonated|sdf|45|dock1
  -GOLD-   6122416163D 1   1.00000     0.00000

 21 22  0  0  0  0  0  0  0  0  1 V2000
  -24.0499   31.4115  -17.1556 S   0  0  0  0  0  0  0  0  0  0  0  0
  -22.9669   32.4881  -16.3714 C   0  0  0  0  0  0  0  0  0  0  0  0
  -25.3035   31.7572  -16.0472 C   0  0  0  0  0  0  0  0  0  0  0  0
  -23.5702   33.1018  -15.2873 C   0  0  0  0  0  0  0  0  0  0  0  0
  -21.5772   32.6678  -16.9079 C   0  0  1  0  0  0  0  0  0  0  0  0
  -24.9168   32.6770  -15.0995 C   0  0  0  0  0  0  0  0  0  0  0  0
  -21.3862   34.0857  -17.1890 N   0  0  0  0  0  0  0  0  0  0  0  0
  -20.5165   32.1551  -15.8993 C   0  0  0  0  0  0  0  0  0  0  0  0
  -20.1399   34.6058  -17.4330 C   0  0  0  0  0  0  0  0  0  0  0  0
  -20.6453   31.1821  -15.1623 O   0  0  0  0  0  0  0  0  0  0  0  0
  -19.3009   32.8064  -15.9647 N   0  0  0  0  0  0  0  0  0  0  0  0
  -20.0021   35.6832  -18.0019 O   0  0  0  0  0  0  0  0  0  0  0  0
  -18.9706   33.6863  -17.0726 C   0  0  0  0  0  0  0  0  0  0  0  0
  -26.2636   31.2684  -16.1420 H   0  0  0  0  0  0  0  0  0  0  0  0
  -23.0645   33.8188  -14.6506 H   0  0  0  0  0  0  0  0  0  0  0  0
  -21.4176   32.1257  -17.8478 H   0  0  0  0  0  0  0  0  0  0  0  0
  -25.5672   33.0257  -14.3066 H   0  0  0  0  0  0  0  0  0  0  0  0
  -22.1738   34.6538  -17.4743 H   0  0  0  0  0  0  0  0  0  0  0  0
  -18.5777   32.4559  -15.3489 H   0  0  0  0  0  0  0  0  0  0  0  0
  -18.7189   33.0707  -17.9412 H   0  0  0  0  0  0  0  0  0  0  0  0
  -18.1102   34.2913  -16.7751 H   0  0  0  0  0  0  0  0  0  0  0  0
  1  2  1  0  0  0  0
  1  3  1  0  0  0  0
  2  4  2  0  0  0  0
  2  5  1  0  0  0  0
  3  6  2  0  0  0  0
  3 14  1  0  0  0  0
  4  6  1  0  0  0  0
  4 15  1  0  0  0  0
  5  7  1  0  0  0  0
  5  8  1  0  0  0  0
  5 16  1  0  0  0  0
  6 17  1  0  0  0  0
  7  9  1  0  0  0  0
  7 18  1  0  0  0  0
  8 10  2  0  0  0  0
  8 11  1  0  0  0  0
  9 12  2  0  0  0  0
  9 13  1  0  0  0  0
 11 13  1  0  0  0  0
 11 19  1  0  0  0  0
 13 20  1  0  0  0  0
 13 21  1  0  0  0  0
M  END
>  <Column 1>
O=C1CNC(=O)[C@@H](c2cccs2)N1 ZINC000000004710

>  <Total Molweight>
196.23

>  <cLogP>
-0.3126

>  <cLogS>
-1.168

>  <H-Acceptors>
4

>  <H-Donors>
2

>  <Total Surface Area>
140.38

>  <MMFF94 Energy>
69.828

> <Gold.Version>
5.8.1

> <Gold.Id.Protein>
ID|2FQT|mol2

> <Gold.PLP.Fitness>
41.0677

> <Gold.PLP.PLP>
-33.5873

> <Gold.PLP.part.hbond>
-3.3439

> <Gold.PLP.part.metal>
0.0000

> <Gold.PLP.part.buried>
-4.0387

> <Gold.PLP.part.nonpolar>
-27.0162

> <Gold.PLP.part.repulsive>
0.4323

> <Gold.PLP.ligand.clash>
0.0000

> <Gold.PLP.ligand.torsion>
0.0462

> <Gold.PLP.Chemscore.Hbond>
2.4137

> <Gold.PLP.Chemscore.CHOScore>
0.1090

> <Gold.PLP.Chemscore.Metal>
0.0000

> <Gold.Chemscore.Hbonds>
donor molecule, donor type, donor heavy atom, donor atom, acceptor molecule, acceptor atom, score
      L1  H    11    19       P1   606  0.36
      P1  H  1223  2649       L1    12  1.00
      P1  H  1230  2756       L1    12  0.06
      P1  H  1239  3336       L1    12  1.00
      L1  C     3    14       P1   426  0.11

> <Gold.PLP.Chemscore.Internal.Correction>
0.0048

> <Gold.Protein.RotatedTorsions>
[ 3412  950  949  948 ] final  103.03 input   60.00 | X-H torsion
[ 3476 1244 1243 1240 ] final    2.50 input   60.00 | X-H torsion
[ 2649 1223 1224 1225 ] final  -22.88 input   60.00 | X-H torsion
[ 4380 1912 1911 1909 ] final  -86.38 input   60.00 | X-H torsion
[ 3084  621  620  617 ] final   42.18 input   60.00 | X-H torsion

> <Gold.Protein.ActiveResidues>
 HIS54   GLU57   HIS58   ALA61   PHE62   ILE64   ARG65   ASP75   ILE76   ILE77  
 ASP78   ILE79   SER80   PRO81   ILE118  PRO119  ALA120  ALA121  ASN122  LYS124 
 GLN125  CYS126  GLY127  CO701   VAL4    GLU5    SER6    PHE7    GLU8    LEU9   
 HIS11   ARG20   HIS21   CYS22   GLY23   VAL24   HIS25   LYS35   ARG39   MET82  
 GLY83   CYS84   TYR89  

> <Gold.Protein.RotatedAtoms>
  -20.7039   37.3632  -17.4441 H   0  0  0  0  0  0  0  0  0  0  0  0  # atno 2649 bound_to 1223
  -20.3659   38.8736  -16.8511 H   0  0  0  0  0  0  0  0  0  0  0  0  # atno 2650 bound_to 1223
  -18.7651   28.8108  -12.9067 H   0  0  0  0  0  0  0  0  0  0  0  0  # atno 3084 bound_to 621 
  -27.7124   37.6990  -28.9405 H   0  0  0  0  0  0  0  0  0  0  0  0  # atno 3412 bound_to 950 
  -28.2269   39.2287  -29.3181 H   0  0  0  0  0  0  0  0  0  0  0  0  # atno 3413 bound_to 950 
  -28.8913   38.4252  -28.0295 H   0  0  0  0  0  0  0  0  0  0  0  0  # atno 3414 bound_to 950 
  -23.6656   32.3806  -21.4171 H   0  0  0  0  0  0  0  0  0  0  0  0  # atno 3476 bound_to 1244
  -20.7482   30.6769  -20.3191 H   0  0  0  0  0  0  0  0  0  0  0  0  # atno 4380 bound_to 1912
  -24.3349   32.2617  -19.9386 LP  0  0  0  0  0  0  0  0  0  0  0  0  # atno 4866 bound_to 1244
  -22.9926   31.4055  -20.3016 LP  0  0  0  0  0  0  0  0  0  0  0  0  # atno 4867 bound_to 1244
  -21.5400   37.9541  -16.1562 LP  0  0  0  0  0  0  0  0  0  0  0  0  # atno 4874 bound_to 1223
  -19.7124   31.8209  -19.8029 LP  0  0  0  0  0  0  0  0  0  0  0  0  # atno 4875 bound_to 1912
  -20.9726   31.3733  -18.8657 LP  0  0  0  0  0  0  0  0  0  0  0  0  # atno 4876 bound_to 1912
  -19.6900   27.8962  -13.8846 LP  0  0  0  0  0  0  0  0  0  0  0  0  # atno 4881 bound_to 621 
  -18.1274   27.4982  -13.6268 LP  0  0  0  0  0  0  0  0  0  0  0  0  # atno 4882 bound_to 621 

$$$$
Compound 46|Decoys_protonated|sdf|46|dock1
  -GOLD-   6122416163D 1   1.00000     0.00000

 38 39  0  0  0  0  0  0  0  0  1 V2000
  -20.3030   34.3665  -17.2421 S   0  0  0  0  0  0  0  0  0  0  0  0
  -19.5073   33.2988  -17.7997 O   0  0  0  0  0  0  0  0  0  0  0  0
  -20.7646   35.4637  -18.0608 O   0  0  0  0  0  0  0  0  0  0  0  0
  -21.6360   33.6802  -16.4669 N   0  0  0  0  0  0  0  0  0  0  0  0
  -19.4840   35.0223  -15.9104 N   0  0  0  0  0  0  0  0  0  0  0  0
  -21.7167   32.1786  -16.5867 C   0  0  0  0  0  0  0  0  0  0  0  0
  -22.9405   34.3036  -16.8797 C   0  0  0  0  0  0  0  0  0  0  0  0
  -18.2700   35.7942  -16.2543 C   0  0  0  0  0  0  0  0  0  0  0  0
  -19.2120   34.0291  -14.8488 C   0  0  0  0  0  0  0  0  0  0  0  0
  -22.8760   31.6420  -15.7227 C   0  0  0  0  0  0  0  0  0  0  0  0
  -24.0959   33.7583  -16.0123 C   0  0  0  0  0  0  0  0  0  0  0  0
  -24.1501   32.2882  -16.0914 N   0  0  0  0  0  0  0  0  0  0  0  0
  -24.8867   31.6988  -17.1135 C   0  0  0  0  0  0  0  0  0  0  0  0
  -24.9171   30.3562  -17.1995 N   0  0  0  0  0  0  0  0  0  0  0  0
  -25.5988   32.4716  -18.0112 C   0  0  0  0  0  0  0  0  0  0  0  0
  -25.6353   29.7953  -18.1916 C   0  0  0  0  0  0  0  0  0  0  0  0
  -26.3026   31.8125  -18.9928 C   0  0  0  0  0  0  0  0  0  0  0  0
  -26.3299   30.4778  -19.1149 N   0  0  0  0  0  0  0  0  0  0  0  0
  -25.6163   28.3032  -18.2988 C   0  0  0  0  0  0  0  0  0  0  0  0
  -20.7862   31.7265  -16.2291 H   0  0  0  0  0  0  0  0  0  0  0  0
  -21.8589   31.8996  -17.6366 H   0  0  0  0  0  0  0  0  0  0  0  0
  -22.8920   35.3884  -16.7388 H   0  0  0  0  0  0  0  0  0  0  0  0
  -23.1298   34.0945  -17.9393 H   0  0  0  0  0  0  0  0  0  0  0  0
  -17.4742   35.1390  -16.6213 H   0  0  0  0  0  0  0  0  0  0  0  0
  -18.4872   36.5598  -17.0041 H   0  0  0  0  0  0  0  0  0  0  0  0
  -17.9049   36.3172  -15.3640 H   0  0  0  0  0  0  0  0  0  0  0  0
  -18.5528   33.2349  -15.2121 H   0  0  0  0  0  0  0  0  0  0  0  0
  -20.1458   33.5936  -14.4818 H   0  0  0  0  0  0  0  0  0  0  0  0
  -18.7300   34.5172  -13.9952 H   0  0  0  0  0  0  0  0  0  0  0  0
  -22.6699   31.8800  -14.6708 H   0  0  0  0  0  0  0  0  0  0  0  0
  -22.9338   30.5483  -15.7774 H   0  0  0  0  0  0  0  0  0  0  0  0
  -25.0367   34.2367  -16.3024 H   0  0  0  0  0  0  0  0  0  0  0  0
  -23.9181   34.0373  -14.9657 H   0  0  0  0  0  0  0  0  0  0  0  0
  -25.6372   33.5493  -17.9422 H   0  0  0  0  0  0  0  0  0  0  0  0
  -26.8857   32.3597  -19.7271 H   0  0  0  0  0  0  0  0  0  0  0  0
  -26.5493   27.9361  -18.7374 H   0  0  0  0  0  0  0  0  0  0  0  0
  -24.7812   27.9903  -18.9320 H   0  0  0  0  0  0  0  0  0  0  0  0
  -25.5001   27.8475  -17.3107 H   0  0  0  0  0  0  0  0  0  0  0  0
  1  2  2  0  0  0  0
  1  3  2  0  0  0  0
  1  4  1  0  0  0  0
  1  5  1  0  0  0  0
  4  6  1  0  0  0  0
  4  7  1  0  0  0  0
  5  8  1  0  0  0  0
  5  9  1  0  0  0  0
  6 10  1  0  0  0  0
  6 20  1  0  0  0  0
  6 21  1  0  0  0  0
  7 11  1  0  0  0  0
  7 22  1  0  0  0  0
  7 23  1  0  0  0  0
  8 24  1  0  0  0  0
  8 25  1  0  0  0  0
  8 26  1  0  0  0  0
  9 27  1  0  0  0  0
  9 28  1  0  0  0  0
  9 29  1  0  0  0  0
 10 12  1  0  0  0  0
 10 30  1  0  0  0  0
 10 31  1  0  0  0  0
 11 12  1  0  0  0  0
 11 32  1  0  0  0  0
 11 33  1  0  0  0  0
 12 13  1  0  0  0  0
 13 14  2  0  0  0  0
 13 15  1  0  0  0  0
 14 16  1  0  0  0  0
 15 17  2  0  0  0  0
 15 34  1  0  0  0  0
 16 18  2  0  0  0  0
 16 19  1  0  0  0  0
 17 18  1  0  0  0  0
 17 35  1  0  0  0  0
 19 36  1  0  0  0  0
 19 37  1  0  0  0  0
 19 38  1  0  0  0  0
M  END
>  <Column 1>
Cc1nccc(N2CCN(S(=O)(=O)N(C)C)CC2)n1 ZINC000000004728

>  <Total Molweight>
285.371

>  <cLogP>
-0.0641

>  <cLogS>
-0.105

>  <H-Acceptors>
7

>  <H-Donors>
0

>  <Total Surface Area>
208.58

>  <MMFF94 Energy>
-149.26

> <Gold.Version>
5.8.1

> <Gold.Id.Protein>
ID|2FQT|mol2

> <Gold.PLP.Fitness>
57.0375

> <Gold.PLP.PLP>
-39.7270

> <Gold.PLP.part.hbond>
-4.0000

> <Gold.PLP.part.metal>
-0.9692

> <Gold.PLP.part.buried>
-4.2907

> <Gold.PLP.part.nonpolar>
-29.4710

> <Gold.PLP.part.repulsive>
0.4212

> <Gold.PLP.ligand.clash>
0.0000

> <Gold.PLP.ligand.torsion>
0.5992

> <Gold.PLP.Chemscore.Hbond>
3.0000

> <Gold.PLP.Chemscore.CHOScore>
0.9631

> <Gold.PLP.Chemscore.Metal>
0.9399

> <Gold.Chemscore.Hbonds>
donor molecule, donor type, donor heavy atom, donor atom, acceptor molecule, acceptor atom, score
      P1  H  1223  2649       L1     3  1.00
      P1  H  1912  4380       L1     2  1.00
      P1  H  1239  3336       L1     3  1.00
      L1  C    17    35       P1   954  0.96
      P1  M  1222  1222       L1    18  0.94

> <Gold.PLP.Chemscore.Internal.Correction>
0.9802

> <Gold.Protein.RotatedTorsions>
[ 3412  950  949  948 ] final -131.65 input   60.00 | X-H torsion
[ 3476 1244 1243 1240 ] final   81.77 input   60.00 | X-H torsion
[ 2649 1223 1224 1225 ] final  -36.94 input   60.00 | X-H torsion
[ 4380 1912 1911 1909 ] final   84.10 input   60.00 | X-H torsion
[ 3084  621  620  617 ] final   40.95 input   60.00 | X-H torsion

> <Gold.Protein.ActiveResidues>
 HIS54   GLU57   HIS58   ALA61   PHE62   ILE64   ARG65   ASP75   ILE76   ILE77  
 ASP78   ILE79   SER80   PRO81   ILE118  PRO119  ALA120  ALA121  ASN122  LYS124 
 GLN125  CYS126  GLY127  CO701   VAL4    GLU5    SER6    PHE7    GLU8    LEU9   
 HIS11   ARG20   HIS21   CYS22   GLY23   VAL24   HIS25   LYS35   ARG39   MET82  
 GLY83   CYS84   TYR89  

> <Gold.Protein.RotatedAtoms>
  -20.8746   37.2547  -17.3258 H   0  0  0  0  0  0  0  0  0  0  0  0  # atno 2649 bound_to 1223
  -20.2629   38.7669  -17.0325 H   0  0  0  0  0  0  0  0  0  0  0  0  # atno 2650 bound_to 1223
  -18.7844   28.8155  -12.9100 H   0  0  0  0  0  0  0  0  0  0  0  0  # atno 3084 bound_to 621 
  -28.2902   39.2642  -29.2668 H   0  0  0  0  0  0  0  0  0  0  0  0  # atno 3412 bound_to 950 
  -28.8611   38.3434  -28.0124 H   0  0  0  0  0  0  0  0  0  0  0  0  # atno 3413 bound_to 950 
  -27.6792   37.7453  -29.0088 H   0  0  0  0  0  0  0  0  0  0  0  0  # atno 3414 bound_to 950 
  -22.9078   31.6032  -20.9191 H   0  0  0  0  0  0  0  0  0  0  0  0  # atno 3476 bound_to 1244
  -20.3299   31.8479  -18.9279 H   0  0  0  0  0  0  0  0  0  0  0  0  # atno 4380 bound_to 1912
  -24.1721   32.6154  -21.0767 LP  0  0  0  0  0  0  0  0  0  0  0  0  # atno 4866 bound_to 1244
  -23.9186   31.8347  -19.6650 LP  0  0  0  0  0  0  0  0  0  0  0  0  # atno 4867 bound_to 1244
  -21.4733   38.1662  -16.0940 LP  0  0  0  0  0  0  0  0  0  0  0  0  # atno 4874 bound_to 1223
  -21.2136   30.6987  -19.6671 LP  0  0  0  0  0  0  0  0  0  0  0  0  # atno 4875 bound_to 1912
  -19.8927   31.3162  -20.4024 LP  0  0  0  0  0  0  0  0  0  0  0  0  # atno 4876 bound_to 1912
  -19.6819   27.8799  -13.8934 LP  0  0  0  0  0  0  0  0  0  0  0  0  # atno 4881 bound_to 621 
  -18.1161   27.5097  -13.6145 LP  0  0  0  0  0  0  0  0  0  0  0  0  # atno 4882 bound_to 621 

$$$$
Compound 47|Decoys_protonated|sdf|47|dock1
  -GOLD-   6122416163D 1   1.00000     0.00000

 22 23  0  0  0  0  0  0  0  0  1 V2000
  -19.6156   34.5015  -16.8127 S   0  0  0  0  0  0  0  0  0  0  0  0
  -20.4321   35.3270  -17.6842 O   0  0  0  0  0  0  0  0  0  0  0  0
  -18.3814   33.9016  -17.2897 O   0  0  0  0  0  0  0  0  0  0  0  0
  -19.2536   35.4349  -15.3444 C   0  0  0  0  0  0  0  0  0  0  0  0
  -20.6436   33.1552  -16.3478 C   0  0  0  0  0  0  0  0  0  0  0  0
  -20.0964   36.4761  -15.1104 N   0  0  0  0  0  0  0  0  0  0  0  0
  -18.2057   35.0573  -14.5188 C   0  0  0  0  0  0  0  0  0  0  0  0
  -20.2273   32.2773  -14.9400 S   0  0  0  0  0  0  0  0  0  0  0  0
  -21.7869   32.6229  -16.8997 C   0  0  0  0  0  0  0  0  0  0  0  0
  -19.8543   37.1866  -13.9894 C   0  0  0  0  0  0  0  0  0  0  0  0
  -17.9930   35.8142  -13.3720 C   0  0  0  0  0  0  0  0  0  0  0  0
  -21.5900   31.2619  -15.1821 C   0  0  0  0  0  0  0  0  0  0  0  0
  -22.3243   31.5394  -16.2307 N   0  0  0  0  0  0  0  0  0  0  0  0
  -18.8277   36.8973  -13.1012 C   0  0  0  0  0  0  0  0  0  0  0  0
  -21.8665   30.2589  -14.3444 N   0  0  0  0  0  0  0  0  0  0  0  0
  -17.5756   34.2061  -14.7552 H   0  0  0  0  0  0  0  0  0  0  0  0
  -22.2721   32.9910  -17.7962 H   0  0  0  0  0  0  0  0  0  0  0  0
  -20.5265   38.0224  -13.8126 H   0  0  0  0  0  0  0  0  0  0  0  0
  -17.1829   35.5639  -12.6917 H   0  0  0  0  0  0  0  0  0  0  0  0
  -18.6808   37.5045  -12.2138 H   0  0  0  0  0  0  0  0  0  0  0  0
  -21.2953   30.0508  -13.5378 H   0  0  0  0  0  0  0  0  0  0  0  0
  -22.6699   29.6698  -14.5214 H   0  0  0  0  0  0  0  0  0  0  0  0
  1  2  2  0  0  0  0
  1  3  2  0  0  0  0
  1  4  1  0  0  0  0
  1  5  1  0  0  0  0
  4  6  2  0  0  0  0
  4  7  1  0  0  0  0
  5  8  1  0  0  0  0
  5  9  2  0  0  0  0
  6 10  1  0  0  0  0
  7 11  2  0  0  0  0
  7 16  1  0  0  0  0
  8 12  1  0  0  0  0
  9 13  1  0  0  0  0
  9 17  1  0  0  0  0
 10 14  2  0  0  0  0
 10 18  1  0  0  0  0
 11 14  1  0  0  0  0
 11 19  1  0  0  0  0
 12 15  1  0  0  0  0
 12 13  2  0  0  0  0
 14 20  1  0  0  0  0
 15 21  1  0  0  0  0
 15 22  1  0  0  0  0
M  END
>  <Column 1>
Nc1ncc(S(=O)(=O)c2ccccn2)s1 ZINC000000004842

>  <Total Molweight>
241.295

>  <cLogP>
0.614

>  <cLogS>
-1.946

>  <H-Acceptors>
5

>  <H-Donors>
1

>  <Total Surface Area>
163.58

>  <MMFF94 Energy>
48.28

> <Gold.Version>
5.8.1

> <Gold.Id.Protein>
ID|2FQT|mol2

> <Gold.PLP.Fitness>
51.0047

> <Gold.PLP.PLP>
-34.9423

> <Gold.PLP.part.hbond>
-6.3845

> <Gold.PLP.part.metal>
0.0000

> <Gold.PLP.part.buried>
-7.2368

> <Gold.PLP.part.nonpolar>
-22.2318

> <Gold.PLP.part.repulsive>
0.1734

> <Gold.PLP.ligand.clash>
0.0000

> <Gold.PLP.ligand.torsion>
2.1203

> <Gold.PLP.Chemscore.Hbond>
4.4236

> <Gold.PLP.Chemscore.CHOScore>
1.0000

> <Gold.PLP.Chemscore.Metal>
0.0000

> <Gold.Chemscore.Hbonds>
donor molecule, donor type, donor heavy atom, donor atom, acceptor molecule, acceptor atom, score
      L1  H    15    21       P1   611  1.00
      L1  H    15    22       P1   427  1.00
      P1  H  1223  2649       L1     2  1.00
      P1  H  1239  3336       L1     2  0.83
      P1  H  1466  3954       L1     3  0.59
      L1  C    10    18       P1   457  1.00

> <Gold.PLP.Chemscore.Internal.Correction>
4.0320

> <Gold.Protein.RotatedTorsions>
[ 3412  950  949  948 ] final -135.11 input   60.00 | X-H torsion
[ 3476 1244 1243 1240 ] final  173.77 input   60.00 | X-H torsion
[ 2649 1223 1224 1225 ] final  -42.89 input   60.00 | X-H torsion
[ 4380 1912 1911 1909 ] final  -72.06 input   60.00 | X-H torsion
[ 3084  621  620  617 ] final  167.85 input   60.00 | X-H torsion

> <Gold.Protein.ActiveResidues>
 HIS54   GLU57   HIS58   ALA61   PHE62   ILE64   ARG65   ASP75   ILE76   ILE77  
 ASP78   ILE79   SER80   PRO81   ILE118  PRO119  ALA120  ALA121  ASN122  LYS124 
 GLN125  CYS126  GLY127  CO701   VAL4    GLU5    SER6    PHE7    GLU8    LEU9   
 HIS11   ARG20   HIS21   CYS22   GLY23   VAL24   HIS25   LYS35   ARG39   MET82  
 GLY83   CYS84   TYR89  

> <Gold.Protein.RotatedAtoms>
  -20.9473   37.2231  -17.2661 H   0  0  0  0  0  0  0  0  0  0  0  0  # atno 2649 bound_to 1223
  -20.2300   38.7086  -17.1058 H   0  0  0  0  0  0  0  0  0  0  0  0  # atno 2650 bound_to 1223
  -18.1892   27.4515  -13.6786 H   0  0  0  0  0  0  0  0  0  0  0  0  # atno 3084 bound_to 621 
  -28.2490   39.2419  -29.3006 H   0  0  0  0  0  0  0  0  0  0  0  0  # atno 3412 bound_to 950 
  -28.8813   38.3965  -28.0228 H   0  0  0  0  0  0  0  0  0  0  0  0  # atno 3413 bound_to 950 
  -27.7002   37.7145  -28.9647 H   0  0  0  0  0  0  0  0  0  0  0  0  # atno 3414 bound_to 950 
  -23.5447   31.5852  -19.7324 H   0  0  0  0  0  0  0  0  0  0  0  0  # atno 3476 bound_to 1244
  -20.9185   30.6324  -20.1658 H   0  0  0  0  0  0  0  0  0  0  0  0  # atno 4380 bound_to 1912
  -23.0615   31.8590  -21.2620 LP  0  0  0  0  0  0  0  0  0  0  0  0  # atno 4866 bound_to 1244
  -24.3878   32.6093  -20.6749 LP  0  0  0  0  0  0  0  0  0  0  0  0  # atno 4867 bound_to 1244
  -21.4341   38.2547  -16.0806 LP  0  0  0  0  0  0  0  0  0  0  0  0  # atno 4874 bound_to 1223
  -19.7047   31.7045  -20.0070 LP  0  0  0  0  0  0  0  0  0  0  0  0  # atno 4875 bound_to 1912
  -20.8088   31.5345  -18.8159 LP  0  0  0  0  0  0  0  0  0  0  0  0  # atno 4876 bound_to 1912
  -18.6752   28.7909  -12.8926 LP  0  0  0  0  0  0  0  0  0  0  0  0  # atno 4881 bound_to 621 
  -19.7223   27.9723  -13.8414 LP  0  0  0  0  0  0  0  0  0  0  0  0  # atno 4882 bound_to 621 

$$$$
Compound 48|Decoys_protonated|sdf|48|dock1
  -GOLD-   6122416163D 1   1.00000     0.00000

 25 27  0  0  0  0  0  0  0  0  1 V2000
  -26.5595   30.3041  -18.1114 O   0  0  0  0  0  0  0  0  0  0  0  0
  -26.9134   29.7251  -19.3285 N   0  0  0  0  0  0  0  0  0  0  0  0
  -25.2327   30.6178  -18.2061 C   0  0  0  0  0  0  0  0  0  0  0  0
  -25.7765   29.7546  -20.0244 C   0  0  0  0  0  0  0  0  0  0  0  0
  -24.7146   30.3007  -19.3728 N   0  0  0  0  0  0  0  0  0  0  0  0
  -24.4374   31.3006  -17.0676 C   0  0  1  0  0  0  0  0  0  0  0  0
  -25.5876   29.3134  -21.2632 N   0  0  0  0  0  0  0  0  0  0  0  0
  -23.2160   30.5151  -16.5920 C   0  0  0  0  0  0  0  0  0  0  0  0
  -24.1869   32.8243  -17.2514 C   0  0  0  0  0  0  0  0  0  0  0  0
  -25.3055   31.7779  -15.8754 C   0  0  0  0  0  0  0  0  0  0  0  0
  -22.3356   31.4442  -15.7537 C   0  0  0  0  0  0  0  0  0  0  0  0
  -24.3824   32.9591  -15.7662 N   0  0  1  0  0  0  0  0  0  0  0  0
  -23.1602   32.5313  -15.0445 C   0  0  0  0  0  0  0  0  0  0  0  0
  -26.3467   28.9014  -21.7863 H   0  0  0  0  0  0  0  0  0  0  0  0
  -24.6871   29.3821  -21.7146 H   0  0  0  0  0  0  0  0  0  0  0  0
  -23.5293   29.6503  -15.9947 H   0  0  0  0  0  0  0  0  0  0  0  0
  -22.6326   30.1311  -17.4370 H   0  0  0  0  0  0  0  0  0  0  0  0
  -24.9533   33.3586  -17.8301 H   0  0  0  0  0  0  0  0  0  0  0  0
  -23.2125   33.1356  -17.6428 H   0  0  0  0  0  0  0  0  0  0  0  0
  -26.3359   32.0647  -16.1272 H   0  0  0  0  0  0  0  0  0  0  0  0
  -25.3530   31.1205  -14.9998 H   0  0  0  0  0  0  0  0  0  0  0  0
  -21.7429   30.8699  -15.0333 H   0  0  0  0  0  0  0  0  0  0  0  0
  -21.6150   31.9343  -16.4215 H   0  0  0  0  0  0  0  0  0  0  0  0
  -23.4431   32.1839  -14.0427 H   0  0  0  0  0  0  0  0  0  0  0  0
  -22.5234   33.4100  -14.8878 H   0  0  0  0  0  0  0  0  0  0  0  0
  1  2  1  0  0  0  0
  1  3  1  0  0  0  0
  2  4  2  0  0  0  0
  3  5  2  0  0  0  0
  4  7  1  0  0  0  0
  4  5  1  0  0  0  0
  6  3  1  0  0  0  0
  6  8  1  0  0  0  0
  6  9  1  0  0  0  0
  6 10  1  0  0  0  0
  7 14  1  0  0  0  0
  7 15  1  0  0  0  0
  8 11  1  0  0  0  0
  8 16  1  0  0  0  0
  8 17  1  0  0  0  0
  9 18  1  0  0  0  0
  9 19  1  0  0  0  0
 10 12  1  0  0  0  0
 10 20  1  0  0  0  0
 10 21  1  0  0  0  0
 11 13  1  0  0  0  0
 11 22  1  0  0  0  0
 11 23  1  0  0  0  0
 12  9  1  0  0  0  0
 12 13  1  0  0  0  0
 13 24  1  0  0  0  0
 13 25  1  0  0  0  0
M  END
>  <Column 1>
Nc1noc(C23CCCN(C2)C3)n1 ZINC000000004880

>  <Total Molweight>
180.21

>  <cLogP>
-0.0969

>  <cLogS>
-1.236

>  <H-Acceptors>
5

>  <H-Donors>
1

>  <Total Surface Area>
131.5

>  <MMFF94 Energy>
-42.651

> <Gold.Version>
5.8.1

> <Gold.Id.Protein>
ID|2FQT|mol2

> <Gold.PLP.Fitness>
48.8545

> <Gold.PLP.PLP>
-33.0486

> <Gold.PLP.part.hbond>
-2.3577

> <Gold.PLP.part.metal>
-1.8685

> <Gold.PLP.part.buried>
-6.8395

> <Gold.PLP.part.nonpolar>
-24.2041

> <Gold.PLP.part.repulsive>
0.5103

> <Gold.PLP.ligand.clash>
0.0000

> <Gold.PLP.ligand.torsion>
0.3104

> <Gold.PLP.Chemscore.Hbond>
1.2750

> <Gold.PLP.Chemscore.CHOScore>
0.0000

> <Gold.PLP.Chemscore.Metal>
2.0000

> <Gold.Chemscore.Hbonds>
donor molecule, donor type, donor heavy atom, donor atom, acceptor molecule, acceptor atom, score
      P1  H   966  3428       L1     2  0.51
      P1  H  1244  3476       L1     5  0.77
      P1  M  1222  1222       L1     1  1.00
      P1  M  1222  1222       L1     2  1.00

> <Gold.PLP.Chemscore.Internal.Correction>
0.6016

> <Gold.Protein.RotatedTorsions>
[ 3412  950  949  948 ] final   87.12 input   60.00 | X-H torsion
[ 3476 1244 1243 1240 ] final -170.82 input   60.00 | X-H torsion
[ 2649 1223 1224 1225 ] final  -49.89 input   60.00 | X-H torsion
[ 4380 1912 1911 1909 ] final   82.38 input   60.00 | X-H torsion
[ 3084  621  620  617 ] final -110.07 input   60.00 | X-H torsion

> <Gold.Protein.ActiveResidues>
 HIS54   GLU57   HIS58   ALA61   PHE62   ILE64   ARG65   ASP75   ILE76   ILE77  
 ASP78   ILE79   SER80   PRO81   ILE118  PRO119  ALA120  ALA121  ASN122  LYS124 
 GLN125  CYS126  GLY127  CO701   VAL4    GLU5    SER6    PHE7    GLU8    LEU9   
 HIS11   ARG20   HIS21   CYS22   GLY23   VAL24   HIS25   LYS35   ARG39   MET82  
 GLY83   CYS84   TYR89  

> <Gold.Protein.RotatedAtoms>
  -21.0318   37.1974  -17.1896 H   0  0  0  0  0  0  0  0  0  0  0  0  # atno 2649 bound_to 1223
  -20.2002   38.6312  -17.1880 H   0  0  0  0  0  0  0  0  0  0  0  0  # atno 2650 bound_to 1223
  -19.3631   27.5193  -14.0376 H   0  0  0  0  0  0  0  0  0  0  0  0  # atno 3084 bound_to 621 
  -27.8391   37.6006  -28.7299 H   0  0  0  0  0  0  0  0  0  0  0  0  # atno 3412 bound_to 950 
  -28.0423   39.0840  -29.4409 H   0  0  0  0  0  0  0  0  0  0  0  0  # atno 3413 bound_to 950 
  -28.9491   38.6681  -28.1173 H   0  0  0  0  0  0  0  0  0  0  0  0  # atno 3414 bound_to 950 
  -23.7509   31.7150  -19.6725 H   0  0  0  0  0  0  0  0  0  0  0  0  # atno 3476 bound_to 1244
  -20.3528   31.8370  -18.9156 H   0  0  0  0  0  0  0  0  0  0  0  0  # atno 4380 bound_to 1912
  -22.9540   31.7068  -21.0913 LP  0  0  0  0  0  0  0  0  0  0  0  0  # atno 4866 bound_to 1244
  -24.2876   32.6308  -20.9059 LP  0  0  0  0  0  0  0  0  0  0  0  0  # atno 4867 bound_to 1244
  -21.3802   38.3563  -16.0749 LP  0  0  0  0  0  0  0  0  0  0  0  0  # atno 4874 bound_to 1223
  -21.2056   30.6896  -19.6929 LP  0  0  0  0  0  0  0  0  0  0  0  0  # atno 4875 bound_to 1912
  -19.8776   31.3363  -20.3892 LP  0  0  0  0  0  0  0  0  0  0  0  0  # atno 4876 bound_to 1912
  -17.9551   27.8702  -13.3009 LP  0  0  0  0  0  0  0  0  0  0  0  0  # atno 4881 bound_to 621 
  -19.2601   28.8247  -13.0715 LP  0  0  0  0  0  0  0  0  0  0  0  0  # atno 4882 bound_to 621 

$$$$
Compound 49|Decoys_protonated|sdf|49|dock2
  -GOLD-   6122416163D 1   1.00000     0.00000

 20 21  0  0  0  0  0  0  0  0  1 V2000
  -18.5366   38.0008  -16.2268 O   0  0  0  0  0  0  0  0  0  0  0  0
  -18.4190   37.5458  -15.1021 C   0  0  0  0  0  0  0  0  0  0  0  0
  -19.4045   37.4645  -14.1388 N   0  0  0  0  0  0  0  0  0  0  0  0
  -17.1992   36.8481  -14.4619 C   0  0  2  0  0  0  0  0  0  0  0  0
  -20.7377   37.7943  -14.3448 O   0  0  0  0  0  0  0  0  0  0  0  0
  -19.0020   36.7026  -12.9752 C   0  0  2  0  0  0  0  0  0  0  0  0
  -17.1840   35.3977  -14.7790 N   0  0  0  0  0  0  0  0  0  0  0  0
  -17.5104   37.0227  -12.9672 C   0  0  0  0  0  0  0  0  0  0  0  0
  -19.1661   35.1960  -13.2105 C   0  0  0  0  0  0  0  0  0  0  0  0
  -18.4733   34.7403  -14.5072 C   0  0  0  0  0  0  0  0  0  0  0  0
  -16.2661   37.3365  -14.7531 H   0  0  0  0  0  0  0  0  0  0  0  0
  -21.0300   38.0229  -13.4380 H   0  0  0  0  0  0  0  0  0  0  0  0
  -19.5204   37.0512  -12.0779 H   0  0  0  0  0  0  0  0  0  0  0  0
  -16.4515   34.9479  -14.2297 H   0  0  0  0  0  0  0  0  0  0  0  0
  -16.9214   36.3718  -12.3123 H   0  0  0  0  0  0  0  0  0  0  0  0
  -17.3371   38.0633  -12.6632 H   0  0  0  0  0  0  0  0  0  0  0  0
  -20.2299   34.9366  -13.2649 H   0  0  0  0  0  0  0  0  0  0  0  0
  -18.7404   34.6510  -12.3589 H   0  0  0  0  0  0  0  0  0  0  0  0
  -19.1415   34.9227  -15.3583 H   0  0  0  0  0  0  0  0  0  0  0  0
  -18.3239   33.6548  -14.4807 H   0  0  0  0  0  0  0  0  0  0  0  0
  1  2  2  0  0  0  0
  2  3  1  0  0  0  0
  2  4  1  0  0  0  0
  3  5  1  0  0  0  0
  3  6  1  0  0  0  0
  4  7  1  0  0  0  0
  4  8  1  0  0  0  0
  4 11  1  0  0  0  0
  5 12  1  0  0  0  0
  6  9  1  0  0  0  0
  6  8  1  0  0  0  0
  6 13  1  0  0  0  0
  7 10  1  0  0  0  0
  7 14  1  0  0  0  0
  8 15  1  0  0  0  0
  8 16  1  0  0  0  0
  9 10  1  0  0  0  0
  9 17  1  0  0  0  0
  9 18  1  0  0  0  0
 10 19  1  0  0  0  0
 10 20  1  0  0  0  0
M  END
>  <Column 1>
O=C1[C@H]2C[C@H](CC[NH2+]2)N1[O-] ZINC000000004888

>  <Total Molweight>
142.157

>  <cLogP>
-1.4333

>  <cLogS>
-0.702

>  <H-Acceptors>
4

>  <H-Donors>
2

>  <Total Surface Area>
98.64

>  <MMFF94 Energy>
70.864

> <Gold.Version>
5.8.1

> <Gold.Id.Protein>
ID|2FQT|mol2

> <Gold.PLP.Fitness>
35.3326

> <Gold.PLP.PLP>
-25.9486

> <Gold.PLP.part.hbond>
-4.6539

> <Gold.PLP.part.metal>
0.0000

> <Gold.PLP.part.buried>
-4.2567

> <Gold.PLP.part.nonpolar>
-16.5440

> <Gold.PLP.part.repulsive>
0.0000

> <Gold.PLP.ligand.clash>
0.0000

> <Gold.PLP.ligand.torsion>
0.0000

> <Gold.PLP.Chemscore.Hbond>
3.1280

> <Gold.PLP.Chemscore.CHOScore>
0.0000

> <Gold.PLP.Chemscore.Metal>
0.0000

> <Gold.Chemscore.Hbonds>
donor molecule, donor type, donor heavy atom, donor atom, acceptor molecule, acceptor atom, score
      L1  H     5    12       P1   457  0.99
      L1  H     7    14       P1   595  1.00
      P1  H  1223  2649       L1     1  0.43
      P1  H  1223  2650       L1     5  0.70

> <Gold.PLP.Chemscore.Internal.Correction>
0.0000

> <Gold.Protein.RotatedTorsions>
[ 3412  950  949  948 ] final -159.98 input   60.00 | X-H torsion
[ 3476 1244 1243 1240 ] final  -79.07 input   60.00 | X-H torsion
[ 2649 1223 1224 1225 ] final   69.81 input   60.00 | X-H torsion
[ 4380 1912 1911 1909 ] final    9.51 input   60.00 | X-H torsion
[ 3084  621  620  617 ] final   81.53 input   60.00 | X-H torsion

> <Gold.Protein.ActiveResidues>
 HIS54   GLU57   HIS58   ALA61   PHE62   ILE64   ARG65   ASP75   ILE76   ILE77  
 ASP78   ILE79   SER80   PRO81   ILE118  PRO119  ALA120  ALA121  ASN122  LYS124 
 GLN125  CYS126  GLY127  CO701   VAL4    GLU5    SER6    PHE7    GLU8    LEU9   
 HIS11   ARG20   HIS21   CYS22   GLY23   VAL24   HIS25   LYS35   ARG39   MET82  
 GLY83   CYS84   TYR89  

> <Gold.Protein.RotatedAtoms>
  -20.1991   38.6276  -17.1914 H   0  0  0  0  0  0  0  0  0  0  0  0  # atno 2649 bound_to 1223
  -21.3818   38.3631  -16.0608 H   0  0  0  0  0  0  0  0  0  0  0  0  # atno 2650 bound_to 1223
  -18.2189   28.4980  -12.9407 H   0  0  0  0  0  0  0  0  0  0  0  0  # atno 3084 bound_to 621 
  -27.9648   39.0029  -29.4794 H   0  0  0  0  0  0  0  0  0  0  0  0  # atno 3412 bound_to 950 
  -28.9586   38.7724  -28.1730 H   0  0  0  0  0  0  0  0  0  0  0  0  # atno 3413 bound_to 950 
  -27.9072   37.5775  -28.6357 H   0  0  0  0  0  0  0  0  0  0  0  0  # atno 3414 bound_to 950 
  -24.4250   32.5567  -20.4746 H   0  0  0  0  0  0  0  0  0  0  0  0  # atno 3476 bound_to 1244
  -21.1683   31.0953  -19.0616 H   0  0  0  0  0  0  0  0  0  0  0  0  # atno 4380 bound_to 1912
  -23.3779   31.4949  -19.8234 LP  0  0  0  0  0  0  0  0  0  0  0  0  # atno 4866 bound_to 1244
  -23.1848   31.9950  -21.3659 LP  0  0  0  0  0  0  0  0  0  0  0  0  # atno 4867 bound_to 1244
  -21.0364   37.2113  -17.1837 LP  0  0  0  0  0  0  0  0  0  0  0  0  # atno 4874 bound_to 1223
  -20.4305   30.8335  -20.4882 LP  0  0  0  0  0  0  0  0  0  0  0  0  # atno 4875 bound_to 1912
  -19.8314   31.9394  -19.4467 LP  0  0  0  0  0  0  0  0  0  0  0  0  # atno 4876 bound_to 1912
  -19.7349   28.4186  -13.5267 LP  0  0  0  0  0  0  0  0  0  0  0  0  # atno 4881 bound_to 621 
  -18.6326   27.2908  -13.9504 LP  0  0  0  0  0  0  0  0  0  0  0  0  # atno 4882 bound_to 621 

$$$$
Compound 50|Decoys_protonated|sdf|50|dock5
  -GOLD-   6122416163D 1   1.00000     0.00000

 27 29  0  0  0  0  0  0  0  0  1 V2000
  -26.7409   29.6882  -19.6502 N   0  0  0  0  0  0  0  0  0  0  0  0
  -26.5006   29.1041  -18.4485 N   0  0  0  0  0  0  0  0  0  0  0  0
  -26.2605   30.9213  -19.9026 C   0  0  0  0  0  0  0  0  0  0  0  0
  -25.7822   29.7875  -17.5424 C   0  0  0  0  0  0  0  0  0  0  0  0
  -25.5414   31.6303  -19.0234 N   0  0  0  0  0  0  0  0  0  0  0  0
  -26.5090   31.4989  -21.1162 N   0  0  0  0  0  0  0  0  0  0  0  0
  -25.3005   31.0490  -17.8233 C   0  0  0  0  0  0  0  0  0  0  0  0
  -24.4959   31.8490  -16.8467 C   0  0  1  0  0  0  0  0  0  0  0  0
  -24.1061   33.2843  -17.1904 C   0  0  0  0  0  0  0  0  0  0  0  0
  -25.2107   32.0695  -15.5002 C   0  0  0  0  0  0  0  0  0  0  0  0
  -23.1084   31.2455  -16.5574 C   0  0  0  0  0  0  0  0  0  0  0  0
  -23.3717   33.5313  -15.9225 N   0  0  1  0  0  0  0  0  0  0  0  0
  -24.4047   33.2199  -14.8958 C   0  0  0  0  0  0  0  0  0  0  0  0
  -22.3752   32.4245  -15.9164 C   0  0  0  0  0  0  0  0  0  0  0  0
  -25.6212   29.2754  -16.6038 H   0  0  0  0  0  0  0  0  0  0  0  0
  -27.0477   30.9747  -21.7827 H   0  0  0  0  0  0  0  0  0  0  0  0
  -26.1454   32.4191  -21.2929 H   0  0  0  0  0  0  0  0  0  0  0  0
  -23.4555   33.3785  -18.0689 H   0  0  0  0  0  0  0  0  0  0  0  0
  -24.9563   33.9667  -17.3143 H   0  0  0  0  0  0  0  0  0  0  0  0
  -25.1935   31.1771  -14.8648 H   0  0  0  0  0  0  0  0  0  0  0  0
  -26.2563   32.3695  -15.6423 H   0  0  0  0  0  0  0  0  0  0  0  0
  -23.1587   30.3795  -15.8880 H   0  0  0  0  0  0  0  0  0  0  0  0
  -22.6016   30.9371  -17.4802 H   0  0  0  0  0  0  0  0  0  0  0  0
  -23.9655   32.9636  -13.9254 H   0  0  0  0  0  0  0  0  0  0  0  0
  -25.0452   34.0963  -14.7416 H   0  0  0  0  0  0  0  0  0  0  0  0
  -21.5061   32.7092  -16.5213 H   0  0  0  0  0  0  0  0  0  0  0  0
  -22.0094   32.1969  -14.9091 H   0  0  0  0  0  0  0  0  0  0  0  0
  1  2  2  0  0  0  0
  1  3  1  0  0  0  0
  2  4  1  0  0  0  0
  3  5  2  0  0  0  0
  3  6  1  0  0  0  0
  4  7  2  0  0  0  0
  4 15  1  0  0  0  0
  5  7  1  0  0  0  0
  6 16  1  0  0  0  0
  6 17  1  0  0  0  0
  8  7  1  0  0  0  0
  8  9  1  0  0  0  0
  8 10  1  0  0  0  0
  8 11  1  0  0  0  0
  9 18  1  0  0  0  0
  9 19  1  0  0  0  0
 10 13  1  0  0  0  0
 10 20  1  0  0  0  0
 10 21  1  0  0  0  0
 11 14  1  0  0  0  0
 11 22  1  0  0  0  0
 11 23  1  0  0  0  0
 12  9  1  0  0  0  0
 12 13  1  0  0  0  0
 12 14  1  0  0  0  0
 13 24  1  0  0  0  0
 13 25  1  0  0  0  0
 14 26  1  0  0  0  0
 14 27  1  0  0  0  0
M  END
>  <Column 1>
Nc1nncc(C23CCN(CC2)C3)n1 ZINC000000005200

>  <Total Molweight>
191.237

>  <cLogP>
-0.6111

>  <cLogS>
-1.047

>  <H-Acceptors>
5

>  <H-Donors>
1

>  <Total Surface Area>
140.57

>  <MMFF94 Energy>
2.1934

> <Gold.Version>
5.8.1

> <Gold.Id.Protein>
ID|2FQT|mol2

> <Gold.PLP.Fitness>
53.5364

> <Gold.PLP.PLP>
-33.1327

> <Gold.PLP.part.hbond>
-4.6249

> <Gold.PLP.part.metal>
-2.0000

> <Gold.PLP.part.buried>
3.5437

> <Gold.PLP.part.nonpolar>
-31.0735

> <Gold.PLP.part.repulsive>
0.4999

> <Gold.PLP.ligand.clash>
0.0000

> <Gold.PLP.ligand.torsion>
0.0905

> <Gold.PLP.Chemscore.Hbond>
1.8596

> <Gold.PLP.Chemscore.CHOScore>
1.0000

> <Gold.PLP.Chemscore.Metal>
1.9986

> <Gold.Chemscore.Hbonds>
donor molecule, donor type, donor heavy atom, donor atom, acceptor molecule, acceptor atom, score
      L1  H     6    16       P1  1290  0.21
      L1  H     6    17       P1   954  0.02
      P1  H   966  3428       L1     1  0.96
      P1  H  1244  3476       L1     5  0.67
      L1  C     4    15       P1   426  1.00
      P1  M  1222  1222       L1     1  1.00
      P1  M  1222  1222       L1     2  1.00

> <Gold.PLP.Chemscore.Internal.Correction>
0.0143

> <Gold.Protein.RotatedTorsions>
[ 3412  950  949  948 ] final  141.82 input   60.00 | X-H torsion
[ 3476 1244 1243 1240 ] final -162.42 input   60.00 | X-H torsion
[ 2649 1223 1224 1225 ] final  -20.80 input   60.00 | X-H torsion
[ 4380 1912 1911 1909 ] final  -80.92 input   60.00 | X-H torsion
[ 3084  621  620  617 ] final  -36.46 input   60.00 | X-H torsion

> <Gold.Protein.ActiveResidues>
 HIS54   GLU57   HIS58   ALA61   PHE62   ILE64   ARG65   ASP75   ILE76   ILE77  
 ASP78   ILE79   SER80   PRO81   ILE118  PRO119  ALA120  ALA121  ASN122  LYS124 
 GLN125  CYS126  GLY127  CO701   VAL4    GLU5    SER6    PHE7    GLU8    LEU9   
 HIS11   ARG20   HIS21   CYS22   GLY23   VAL24   HIS25   LYS35   ARG39   MET82  
 GLY83   CYS84   TYR89  

> <Gold.Protein.RotatedAtoms>
  -20.6793   37.3830  -17.4584 H   0  0  0  0  0  0  0  0  0  0  0  0  # atno 2649 bound_to 1223
  -20.3838   38.8854  -16.8239 H   0  0  0  0  0  0  0  0  0  0  0  0  # atno 2650 bound_to 1223
  -19.7205   28.4390  -13.5041 H   0  0  0  0  0  0  0  0  0  0  0  0  # atno 3084 bound_to 621 
  -27.5966   38.1555  -29.3674 H   0  0  0  0  0  0  0  0  0  0  0  0  # atno 3412 bound_to 950 
  -28.6644   39.3198  -28.8660 H   0  0  0  0  0  0  0  0  0  0  0  0  # atno 3413 bound_to 950 
  -28.5696   37.8775  -28.0547 H   0  0  0  0  0  0  0  0  0  0  0  0  # atno 3414 bound_to 950 
  -23.8617   31.7956  -19.6665 H   0  0  0  0  0  0  0  0  0  0  0  0  # atno 3476 bound_to 1244
  -20.8157   30.6553  -20.2651 H   0  0  0  0  0  0  0  0  0  0  0  0  # atno 4380 bound_to 1912
  -22.9165   31.6326  -20.9810 LP  0  0  0  0  0  0  0  0  0  0  0  0  # atno 4866 bound_to 1244
  -24.2136   32.6238  -21.0223 LP  0  0  0  0  0  0  0  0  0  0  0  0  # atno 4867 bound_to 1244
  -21.5465   37.9231  -16.1688 LP  0  0  0  0  0  0  0  0  0  0  0  0  # atno 4874 bound_to 1223
  -19.7038   31.7801  -19.8824 LP  0  0  0  0  0  0  0  0  0  0  0  0  # atno 4875 bound_to 1912
  -20.9133   31.4359  -18.8406 LP  0  0  0  0  0  0  0  0  0  0  0  0  # atno 4876 bound_to 1912
  -18.6635   27.2895  -13.9620 LP  0  0  0  0  0  0  0  0  0  0  0  0  # atno 4881 bound_to 621 
  -18.1918   28.4792  -12.9477 LP  0  0  0  0  0  0  0  0  0  0  0  0  # atno 4882 bound_to 621 

$$$$
Compound 51|Decoys_protonated|sdf|51|dock2
  -GOLD-   6122416163D 1   1.00000     0.00000

 24 25  0  0  0  0  0  0  0  0  1 V2000
  -20.6925   35.4837  -18.1030 O   0  0  0  0  0  0  0  0  0  0  0  0
  -20.3727   34.5570  -17.3753 C   0  0  0  0  0  0  0  0  0  0  0  0
  -21.1675   33.8867  -16.4894 N   0  0  0  0  0  0  0  0  0  0  0  0
  -19.0004   33.9881  -17.2448 C   0  0  0  0  0  0  0  0  0  0  0  0
  -20.4815   32.8548  -15.8138 O   0  0  0  0  0  0  0  0  0  0  0  0
  -22.5755   34.0568  -16.1985 C   0  0  0  0  0  0  0  0  0  0  0  0
  -19.3005   32.6539  -16.5971 C   0  0  0  0  0  0  0  0  0  0  0  0
  -23.2918   32.7808  -16.4533 C   0  0  0  0  0  0  0  0  0  0  0  0
  -24.5337   32.4511  -15.9627 N   0  0  0  0  0  0  0  0  0  0  0  0
  -22.9174   31.6800  -17.1982 C   0  0  0  0  0  0  0  0  0  0  0  0
  -24.8468   31.2052  -16.4297 C   0  0  0  0  0  0  0  0  0  0  0  0
  -25.3780   33.2393  -15.0980 C   0  0  0  0  0  0  0  0  0  0  0  0
  -23.8900   30.7164  -17.1840 N   0  0  0  0  0  0  0  0  0  0  0  0
  -18.4996   33.8813  -18.2088 H   0  0  0  0  0  0  0  0  0  0  0  0
  -18.4185   34.6354  -16.5815 H   0  0  0  0  0  0  0  0  0  0  0  0
  -22.9621   34.8599  -16.8347 H   0  0  0  0  0  0  0  0  0  0  0  0
  -22.6888   34.3647  -15.1544 H   0  0  0  0  0  0  0  0  0  0  0  0
  -18.4833   32.3144  -15.9546 H   0  0  0  0  0  0  0  0  0  0  0  0
  -19.5092   31.8793  -17.3439 H   0  0  0  0  0  0  0  0  0  0  0  0
  -21.9943   31.5349  -17.7452 H   0  0  0  0  0  0  0  0  0  0  0  0
  -25.7754   30.7028  -16.1911 H   0  0  0  0  0  0  0  0  0  0  0  0
  -24.9981   33.1525  -14.0779 H   0  0  0  0  0  0  0  0  0  0  0  0
  -26.4012   32.8564  -15.1456 H   0  0  0  0  0  0  0  0  0  0  0  0
  -25.3696   34.2785  -15.4331 H   0  0  0  0  0  0  0  0  0  0  0  0
  1  2  2  0  0  0  0
  2  3  1  0  0  0  0
  2  4  1  0  0  0  0
  3  5  1  0  0  0  0
  3  6  1  0  0  0  0
  4  7  1  0  0  0  0
  4 14  1  0  0  0  0
  4 15  1  0  0  0  0
  5  7  1  0  0  0  0
  6  8  1  0  0  0  0
  6 16  1  0  0  0  0
  6 17  1  0  0  0  0
  7 18  1  0  0  0  0
  7 19  1  0  0  0  0
  8  9  1  0  0  0  0
  8 10  2  0  0  0  0
  9 11  1  0  0  0  0
  9 12  1  0  0  0  0
 10 13  1  0  0  0  0
 10 20  1  0  0  0  0
 11 13  2  0  0  0  0
 11 21  1  0  0  0  0
 12 22  1  0  0  0  0
 12 23  1  0  0  0  0
 12 24  1  0  0  0  0
M  END
>  <Column 1>
Cn1cncc1CN1OCCC1=O ZINC000000005245

>  <Total Molweight>
181.194

>  <cLogP>
-1.0507

>  <cLogS>
-0.174

>  <H-Acceptors>
5

>  <H-Donors>
0

>  <Total Surface Area>
139.31

>  <MMFF94 Energy>
1.2386

> <Gold.Version>
5.8.1

> <Gold.Id.Protein>
ID|2FQT|mol2

> <Gold.PLP.Fitness>
44.7037

> <Gold.PLP.PLP>
-33.6500

> <Gold.PLP.part.hbond>
-3.0000

> <Gold.PLP.part.metal>
0.0000

> <Gold.PLP.part.buried>
-4.3515

> <Gold.PLP.part.nonpolar>
-27.4460

> <Gold.PLP.part.repulsive>
0.2694

> <Gold.PLP.ligand.clash>
0.0000

> <Gold.PLP.ligand.torsion>
0.2649

> <Gold.PLP.Chemscore.Hbond>
2.0000

> <Gold.PLP.Chemscore.CHOScore>
1.8601

> <Gold.PLP.Chemscore.Metal>
0.0000

> <Gold.Chemscore.Hbonds>
donor molecule, donor type, donor heavy atom, donor atom, acceptor molecule, acceptor atom, score
      P1  H  1223  2650       L1     1  1.00
      P1  H  1239  3336       L1     1  1.00
      L1  C    10    20       P1  1912  1.00
      L1  C    11    21       P1   426  0.86

> <Gold.PLP.Chemscore.Internal.Correction>
0.0033

> <Gold.Protein.RotatedTorsions>
[ 3412  950  949  948 ] final    2.84 input   60.00 | X-H torsion
[ 3476 1244 1243 1240 ] final   82.67 input   60.00 | X-H torsion
[ 2649 1223 1224 1225 ] final -167.32 input   60.00 | X-H torsion
[ 4380 1912 1911 1909 ] final  141.90 input   60.00 | X-H torsion
[ 3084  621  620  617 ] final -111.97 input   60.00 | X-H torsion

> <Gold.Protein.ActiveResidues>
 HIS54   GLU57   HIS58   ALA61   PHE62   ILE64   ARG65   ASP75   ILE76   ILE77  
 ASP78   ILE79   SER80   PRO81   ILE118  PRO119  ALA120  ALA121  ASN122  LYS124 
 GLN125  CYS126  GLY127  CO701   VAL4    GLU5    SER6    PHE7    GLU8    LEU9   
 HIS11   ARG20   HIS21   CYS22   GLY23   VAL24   HIS25   LYS35   ARG39   MET82  
 GLY83   CYS84   TYR89  

> <Gold.Protein.RotatedAtoms>
  -21.4053   38.3214  -16.0616 H   0  0  0  0  0  0  0  0  0  0  0  0  # atno 2649 bound_to 1223
  -21.0011   37.2053  -17.2183 H   0  0  0  0  0  0  0  0  0  0  0  0  # atno 2650 bound_to 1223
  -19.3379   27.5014  -14.0417 H   0  0  0  0  0  0  0  0  0  0  0  0  # atno 3084 bound_to 621 
  -28.7542   38.1274  -27.9990 H   0  0  0  0  0  0  0  0  0  0  0  0  # atno 3412 bound_to 950 
  -27.6158   37.9007  -29.1822 H   0  0  0  0  0  0  0  0  0  0  0  0  # atno 3413 bound_to 950 
  -28.4606   39.3247  -29.1068 H   0  0  0  0  0  0  0  0  0  0  0  0  # atno 3414 bound_to 950 
  -22.9056   31.5962  -20.9063 H   0  0  0  0  0  0  0  0  0  0  0  0  # atno 3476 bound_to 1244
  -19.7580   31.8858  -19.6282 H   0  0  0  0  0  0  0  0  0  0  0  0  # atno 4380 bound_to 1912
  -24.1629   32.6132  -21.0880 LP  0  0  0  0  0  0  0  0  0  0  0  0  # atno 4866 bound_to 1244
  -23.9301   31.8439  -19.6665 LP  0  0  0  0  0  0  0  0  0  0  0  0  # atno 4867 bound_to 1244
  -20.2231   38.6537  -17.1564 LP  0  0  0  0  0  0  0  0  0  0  0  0  # atno 4874 bound_to 1223
  -21.0841   31.2372  -18.9435 LP  0  0  0  0  0  0  0  0  0  0  0  0  # atno 4875 bound_to 1912
  -20.5981   30.7395  -20.4209 LP  0  0  0  0  0  0  0  0  0  0  0  0  # atno 4876 bound_to 1912
  -17.9536   27.8955  -13.2824 LP  0  0  0  0  0  0  0  0  0  0  0  0  # atno 4881 bound_to 621 
  -19.2870   28.8175  -13.0860 LP  0  0  0  0  0  0  0  0  0  0  0  0  # atno 4882 bound_to 621 

$$$$
Compound 52|Decoys_protonated|sdf|52|dock7
  -GOLD-   6122416173D 1   1.00000     0.00000

 26 27  0  0  0  0  0  0  0  0  1 V2000
  -17.7485   34.3580  -17.7625 S   0  0  1  0  0  0  0  0  0  0  0  0
  -17.8085   35.8584  -17.8043 O   0  0  0  0  0  0  0  0  0  0  0  0
  -19.2946   33.7900  -17.1004 C   0  0  0  0  0  0  0  0  0  0  0  0
  -17.9728   33.7596  -19.4558 C   0  0  0  0  0  0  0  0  0  0  0  0
  -20.5433   34.5626  -17.3019 C   0  0  0  0  0  0  0  0  0  0  0  0
  -19.3826   32.6302  -16.4376 C   0  0  0  0  0  0  0  0  0  0  0  0
  -20.5524   35.6283  -17.9108 O   0  0  0  0  0  0  0  0  0  0  0  0
  -21.7968   34.0017  -16.7330 C   0  0  0  0  0  0  0  0  0  0  0  0
  -20.5352   32.0832  -15.8956 N   0  0  0  0  0  0  0  0  0  0  0  0
  -21.7623   32.7696  -16.0389 C   0  0  0  0  0  0  0  0  0  0  0  0
  -22.9931   34.7190  -16.9026 C   0  0  0  0  0  0  0  0  0  0  0  0
  -20.5175   30.8027  -15.1852 C   0  0  0  0  0  0  0  0  0  0  0  0
  -22.9767   32.2914  -15.5229 C   0  0  0  0  0  0  0  0  0  0  0  0
  -24.1802   34.2176  -16.3790 C   0  0  0  0  0  0  0  0  0  0  0  0
  -24.1599   33.0106  -15.6952 C   0  0  0  0  0  0  0  0  0  0  0  0
  -25.3003   32.5235  -15.1889 F   0  0  0  0  0  0  0  0  0  0  0  0
  -17.9237   32.6696  -19.4827 H   0  0  0  0  0  0  0  0  0  0  0  0
  -18.9304   34.1049  -19.8536 H   0  0  0  0  0  0  0  0  0  0  0  0
  -17.1644   34.1626  -20.0711 H   0  0  0  0  0  0  0  0  0  0  0  0
  -18.4949   32.0197  -16.2807 H   0  0  0  0  0  0  0  0  0  0  0  0
  -22.9976   35.6643  -17.4417 H   0  0  0  0  0  0  0  0  0  0  0  0
  -20.8504   30.9265  -14.1488 H   0  0  0  0  0  0  0  0  0  0  0  0
  -21.1549   30.0675  -15.6893 H   0  0  0  0  0  0  0  0  0  0  0  0
  -19.5082   30.3766  -15.1467 H   0  0  0  0  0  0  0  0  0  0  0  0
  -23.0433   31.3564  -14.9773 H   0  0  0  0  0  0  0  0  0  0  0  0
  -25.1149   34.7563  -16.4998 H   0  0  0  0  0  0  0  0  0  0  0  0
  1  2  2  0  0  0  0
  1  3  1  0  0  0  0
  1  4  1  0  0  0  0
  3  5  1  0  0  0  0
  3  6  2  0  0  0  0
  4 17  1  0  0  0  0
  4 18  1  0  0  0  0
  4 19  1  0  0  0  0
  5  7  2  0  0  0  0
  5  8  1  0  0  0  0
  6  9  1  0  0  0  0
  6 20  1  0  0  0  0
  8 10  2  0  0  0  0
  8 11  1  0  0  0  0
  9 12  1  0  0  0  0
  9 10  1  0  0  0  0
 10 13  1  0  0  0  0
 11 14  2  0  0  0  0
 11 21  1  0  0  0  0
 12 22  1  0  0  0  0
 12 23  1  0  0  0  0
 12 24  1  0  0  0  0
 13 15  2  0  0  0  0
 13 25  1  0  0  0  0
 14 15  1  0  0  0  0
 14 26  1  0  0  0  0
 15 16  1  0  0  0  0
M  END
>  <Column 1>
Cn1cc([S@@](C)=O)c(=O)c2ccc(F)cc21 ZINC000000005432

>  <Total Molweight>
239.269

>  <cLogP>
-0.256

>  <cLogS>
-2.572

>  <H-Acceptors>
3

>  <H-Donors>
0

>  <Total Surface Area>
166.11

>  <MMFF94 Energy>
47.661

> <Gold.Version>
5.8.1

> <Gold.Id.Protein>
ID|2FQT|mol2

> <Gold.PLP.Fitness>
51.8275

> <Gold.PLP.PLP>
-43.6846

> <Gold.PLP.part.hbond>
-3.0000

> <Gold.PLP.part.metal>
0.0000

> <Gold.PLP.part.buried>
-2.5063

> <Gold.PLP.part.nonpolar>
-38.9984

> <Gold.PLP.part.repulsive>
0.0607

> <Gold.PLP.ligand.clash>
0.0000

> <Gold.PLP.ligand.torsion>
0.9100

> <Gold.PLP.Chemscore.Hbond>
2.0000

> <Gold.PLP.Chemscore.CHOScore>
1.0000

> <Gold.PLP.Chemscore.Metal>
0.0000

> <Gold.Chemscore.Hbonds>
donor molecule, donor type, donor heavy atom, donor atom, acceptor molecule, acceptor atom, score
      P1  H  1223  2649       L1     7  1.00
      P1  H  1239  3336       L1     7  1.00
      L1  C     6    20       P1   606  1.00

> <Gold.PLP.Chemscore.Internal.Correction>
0.9630

> <Gold.Protein.RotatedTorsions>
[ 3412  950  949  948 ] final -176.57 input   60.00 | X-H torsion
[ 3476 1244 1243 1240 ] final  105.01 input   60.00 | X-H torsion
[ 2649 1223 1224 1225 ] final  -24.07 input   60.00 | X-H torsion
[ 4380 1912 1911 1909 ] final   39.66 input   60.00 | X-H torsion
[ 3084  621  620  617 ] final  114.93 input   60.00 | X-H torsion

> <Gold.Protein.ActiveResidues>
 HIS54   GLU57   HIS58   ALA61   PHE62   ILE64   ARG65   ASP75   ILE76   ILE77  
 ASP78   ILE79   SER80   PRO81   ILE118  PRO119  ALA120  ALA121  ASN122  LYS124 
 GLN125  CYS126  GLY127  CO701   VAL4    GLU5    SER6    PHE7    GLU8    LEU9   
 HIS11   ARG20   HIS21   CYS22   GLY23   VAL24   HIS25   LYS35   ARG39   MET82  
 GLY83   CYS84   TYR89  

> <Gold.Protein.RotatedAtoms>
  -20.7181   37.3523  -17.4354 H   0  0  0  0  0  0  0  0  0  0  0  0  # atno 2649 bound_to 1223
  -20.3559   38.8664  -16.8668 H   0  0  0  0  0  0  0  0  0  0  0  0  # atno 2650 bound_to 1223
  -17.9770   28.0712  -13.1619 H   0  0  0  0  0  0  0  0  0  0  0  0  # atno 3084 bound_to 621 
  -27.8045   38.7829  -29.5258 H   0  0  0  0  0  0  0  0  0  0  0  0  # atno 3412 bound_to 950 
  -28.9397   38.9941  -28.3367 H   0  0  0  0  0  0  0  0  0  0  0  0  # atno 3413 bound_to 950 
  -28.0864   37.5759  -28.4256 H   0  0  0  0  0  0  0  0  0  0  0  0  # atno 3414 bound_to 950 
  -22.9118   31.4602  -20.5701 H   0  0  0  0  0  0  0  0  0  0  0  0  # atno 3476 bound_to 1244
  -20.9023   31.4399  -18.8431 H   0  0  0  0  0  0  0  0  0  0  0  0  # atno 4380 bound_to 1912
  -23.8997   32.5130  -21.3208 LP  0  0  0  0  0  0  0  0  0  0  0  0  # atno 4866 bound_to 1244
  -24.1870   32.0811  -19.7724 LP  0  0  0  0  0  0  0  0  0  0  0  0  # atno 4867 bound_to 1244
  -21.5358   37.9720  -16.1493 LP  0  0  0  0  0  0  0  0  0  0  0  0  # atno 4874 bound_to 1223
  -20.8266   30.6505  -20.2641 LP  0  0  0  0  0  0  0  0  0  0  0  0  # atno 4875 bound_to 1912
  -19.7033   31.7754  -19.8909 LP  0  0  0  0  0  0  0  0  0  0  0  0  # atno 4876 bound_to 1912
  -19.4573   28.7462  -13.1961 LP  0  0  0  0  0  0  0  0  0  0  0  0  # atno 4881 bound_to 621 
  -19.1538   27.3930  -14.0582 LP  0  0  0  0  0  0  0  0  0  0  0  0  # atno 4882 bound_to 621 

$$$$
Compound 53|Decoys_protonated|sdf|53|dock4
  -GOLD-   6122416173D 1   1.00000     0.00000

 14 14  0  0  0  0  0  0  0  0  1 V2000
  -18.0731   34.1646  -17.6510 O   0  0  0  0  0  0  0  0  0  0  0  0
  -19.2262   33.9241  -17.3124 C   0  0  0  0  0  0  0  0  0  0  0  0
  -20.2238   34.8526  -17.3927 N   0  0  0  0  0  0  0  0  0  0  0  0
  -19.5987   32.7009  -16.8269 N   0  0  0  0  0  0  0  0  0  0  0  0
  -21.5313   34.6517  -17.0323 C   0  0  0  0  0  0  0  0  0  0  0  0
  -20.8756   32.3957  -16.4391 C   0  0  0  0  0  0  0  0  0  0  0  0
  -22.3661   35.5457  -17.1379 O   0  0  0  0  0  0  0  0  0  0  0  0
  -21.8685   33.2928  -16.5103 C   0  0  0  0  0  0  0  0  0  0  0  0
  -23.1912   32.9633  -16.1041 C   0  0  0  0  0  0  0  0  0  0  0  0
  -24.3081   32.6847  -15.7617 C   0  0  0  0  0  0  0  0  0  0  0  0
  -19.9783   35.7636  -17.7471 H   0  0  0  0  0  0  0  0  0  0  0  0
  -18.8607   32.0079  -16.7656 H   0  0  0  0  0  0  0  0  0  0  0  0
  -21.0325   31.3857  -16.0722 H   0  0  0  0  0  0  0  0  0  0  0  0
  -25.3016   32.4323  -15.4713 H   0  0  0  0  0  0  0  0  0  0  0  0
  1  2  2  0  0  0  0
  2  3  1  0  0  0  0
  2  4  1  0  0  0  0
  3  5  1  0  0  0  0
  3 11  1  0  0  0  0
  4  6  1  0  0  0  0
  4 12  1  0  0  0  0
  5  7  2  0  0  0  0
  5  8  1  0  0  0  0
  6  8  2  0  0  0  0
  6 13  1  0  0  0  0
  8  9  1  0  0  0  0
  9 10  3  0  0  0  0
 10 14  1  0  0  0  0
M  END
>  <Column 1>
C#Cc1c[nH]c(=O)[nH]c1=O ZINC000000005467

>  <Total Molweight>
136.11

>  <cLogP>
-0.9801

>  <cLogS>
-1.7

>  <H-Acceptors>
4

>  <H-Donors>
2

>  <Total Surface Area>
106.94

>  <MMFF94 Energy>
-70.803

> <Gold.Version>
5.8.1

> <Gold.Id.Protein>
ID|2FQT|mol2

> <Gold.PLP.Fitness>
29.9547

> <Gold.PLP.PLP>
-23.9787

> <Gold.PLP.part.hbond>
-2.5532

> <Gold.PLP.part.metal>
0.0000

> <Gold.PLP.part.buried>
-5.4612

> <Gold.PLP.part.nonpolar>
-17.6257

> <Gold.PLP.part.repulsive>
0.2922

> <Gold.PLP.ligand.clash>
0.0000

> <Gold.PLP.ligand.torsion>
0.0000

> <Gold.PLP.Chemscore.Hbond>
1.9920

> <Gold.PLP.Chemscore.CHOScore>
0.0000

> <Gold.PLP.Chemscore.Metal>
0.0000

> <Gold.Chemscore.Hbonds>
donor molecule, donor type, donor heavy atom, donor atom, acceptor molecule, acceptor atom, score
      P1  H  1223  2649       L1     7  1.00
      P1  H  1466  3954       L1     1  0.99

> <Gold.PLP.Chemscore.Internal.Correction>
0.0000

> <Gold.Protein.RotatedTorsions>
[ 3412  950  949  948 ] final  135.82 input   60.00 | X-H torsion
[ 3476 1244 1243 1240 ] final  170.29 input   60.00 | X-H torsion
[ 2649 1223 1224 1225 ] final  -77.84 input   60.00 | X-H torsion
[ 4380 1912 1911 1909 ] final  -19.33 input   60.00 | X-H torsion
[ 3084  621  620  617 ] final  -52.13 input   60.00 | X-H torsion

> <Gold.Protein.ActiveResidues>
 HIS54   GLU57   HIS58   ALA61   PHE62   ILE64   ARG65   ASP75   ILE76   ILE77  
 ASP78   ILE79   SER80   PRO81   ILE118  PRO119  ALA120  ALA121  ASN122  LYS124 
 GLN125  CYS126  GLY127  CO701   VAL4    GLU5    SER6    PHE7    GLU8    LEU9   
 HIS11   ARG20   HIS21   CYS22   GLY23   VAL24   HIS25   LYS35   ARG39   MET82  
 GLY83   CYS84   TYR89  

> <Gold.Protein.RotatedAtoms>
  -21.3336   37.2246  -16.8406 H   0  0  0  0  0  0  0  0  0  0  0  0  # atno 2649 bound_to 1223
  -20.1832   38.2505  -17.4498 H   0  0  0  0  0  0  0  0  0  0  0  0  # atno 2650 bound_to 1223
  -19.7616   28.2410  -13.6600 H   0  0  0  0  0  0  0  0  0  0  0  0  # atno 3084 bound_to 621 
  -27.5946   38.0701  -29.3151 H   0  0  0  0  0  0  0  0  0  0  0  0  # atno 3412 bound_to 950 
  -28.6036   39.3318  -28.9446 H   0  0  0  0  0  0  0  0  0  0  0  0  # atno 3413 bound_to 950 
  -28.6324   37.9509  -28.0284 H   0  0  0  0  0  0  0  0  0  0  0  0  # atno 3414 bound_to 950 
  -23.4987   31.5599  -19.7544 H   0  0  0  0  0  0  0  0  0  0  0  0  # atno 3476 bound_to 1244
  -21.2483   30.8134  -19.4243 H   0  0  0  0  0  0  0  0  0  0  0  0  # atno 4380 bound_to 1912
  -23.0922   31.8953  -21.2939 LP  0  0  0  0  0  0  0  0  0  0  0  0  # atno 4866 bound_to 1244
  -24.4034   32.5985  -20.6209 LP  0  0  0  0  0  0  0  0  0  0  0  0  # atno 4867 bound_to 1244
  -21.0996   38.7045  -16.1610 LP  0  0  0  0  0  0  0  0  0  0  0  0  # atno 4874 bound_to 1223
  -20.0625   31.1250  -20.4942 LP  0  0  0  0  0  0  0  0  0  0  0  0  # atno 4875 bound_to 1912
  -20.1189   31.9318  -19.0756 LP  0  0  0  0  0  0  0  0  0  0  0  0  # atno 4876 bound_to 1912
  -18.4316   27.3243  -13.8567 LP  0  0  0  0  0  0  0  0  0  0  0  0  # atno 4881 bound_to 621 
  -18.3824   28.6439  -12.8961 LP  0  0  0  0  0  0  0  0  0  0  0  0  # atno 4882 bound_to 621 

$$$$
Compound 54|Decoys_protonated|sdf|54|dock3
  -GOLD-   6122416173D 1   1.00000     0.00000

 21 21  0  0  0  0  0  0  0  0  1 V2000
  -21.7462   29.0804  -14.3972 O   0  0  0  0  0  0  0  0  0  0  0  0
  -21.8285   30.2601  -15.1571 N   0  0  0  0  0  0  0  0  0  0  0  0
  -20.6756   30.8676  -15.2018 C   0  0  0  0  0  0  0  0  0  0  0  0
  -19.5687   30.3752  -14.5688 N   0  0  0  0  0  0  0  0  0  0  0  0
  -20.5817   32.1499  -15.9644 C   0  0  0  0  0  0  0  0  0  0  0  0
  -21.7186   32.9498  -16.1515 C   0  0  0  0  0  0  0  0  0  0  0  0
  -19.3396   32.5510  -16.4829 C   0  0  0  0  0  0  0  0  0  0  0  0
  -21.5993   34.1360  -16.8684 C   0  0  0  0  0  0  0  0  0  0  0  0
  -19.2400   33.7407  -17.2022 C   0  0  0  0  0  0  0  0  0  0  0  0
  -22.6720   34.9613  -17.0776 O   0  0  0  0  0  0  0  0  0  0  0  0
  -20.3697   34.5291  -17.3972 C   0  0  0  0  0  0  0  0  0  0  0  0
  -18.0404   34.1400  -17.7188 O   0  0  0  0  0  0  0  0  0  0  0  0
  -20.2932   35.7008  -18.0999 O   0  0  0  0  0  0  0  0  0  0  0  0
  -22.6745   28.9478  -14.1301 H   0  0  0  0  0  0  0  0  0  0  0  0
  -19.7076   29.5069  -14.0639 H   0  0  0  0  0  0  0  0  0  0  0  0
  -18.7351   30.9128  -14.3917 H   0  0  0  0  0  0  0  0  0  0  0  0
  -22.6701   32.6591  -15.7213 H   0  0  0  0  0  0  0  0  0  0  0  0
  -18.4658   31.9251  -16.3265 H   0  0  0  0  0  0  0  0  0  0  0  0
  -22.3939   35.8798  -16.9204 H   0  0  0  0  0  0  0  0  0  0  0  0
  -18.1885   34.5676  -18.5765 H   0  0  0  0  0  0  0  0  0  0  0  0
  -19.3671   35.7523  -18.4034 H   0  0  0  0  0  0  0  0  0  0  0  0
  1  2  1  0  0  0  0
  1 14  1  0  0  0  0
  2  3  2  0  0  0  0
  3  4  1  0  0  0  0
  3  5  1  0  0  0  0
  4 15  1  0  0  0  0
  4 16  1  0  0  0  0
  5  6  2  0  0  0  0
  5  7  1  0  0  0  0
  6  8  1  0  0  0  0
  6 17  1  0  0  0  0
  7  9  2  0  0  0  0
  7 18  1  0  0  0  0
  8 10  1  0  0  0  0
  8 11  2  0  0  0  0
  9 12  1  0  0  0  0
  9 11  1  0  0  0  0
 10 19  1  0  0  0  0
 11 13  1  0  0  0  0
 12 20  1  0  0  0  0
 13 21  1  0  0  0  0
M  END
>  <Column 1>
N/C(=N\O)c1cc(O)c(O)c(O)c1 ZINC000000005721

>  <Total Molweight>
184.151

>  <cLogP>
0.3312

>  <cLogS>
-1.192

>  <H-Acceptors>
6

>  <H-Donors>
5

>  <Total Surface Area>
130.15

>  <MMFF94 Energy>
2.6654

> <Gold.Version>
5.8.1

> <Gold.Id.Protein>
ID|2FQT|mol2

> <Gold.PLP.Fitness>
47.7359

> <Gold.PLP.PLP>
-30.9433

> <Gold.PLP.part.hbond>
-8.3259

> <Gold.PLP.part.metal>
0.0000

> <Gold.PLP.part.buried>
-5.4851

> <Gold.PLP.part.nonpolar>
-18.7387

> <Gold.PLP.part.repulsive>
0.3896

> <Gold.PLP.ligand.clash>
0.0000

> <Gold.PLP.ligand.torsion>
0.2797

> <Gold.PLP.Chemscore.Hbond>
5.7840

> <Gold.PLP.Chemscore.CHOScore>
0.0000

> <Gold.PLP.Chemscore.Metal>
0.0000

> <Gold.Chemscore.Hbonds>
donor molecule, donor type, donor heavy atom, donor atom, acceptor molecule, acceptor atom, score
      L1  H     1    14       P1   427  0.99
      L1  H     4    15       P1   621  0.99
      L1  H     4    16       P1   606  0.80
      P1  H  1223  2650       L1    13  1.00
      P1  H  1239  3336       L1    13  1.00
      P1  H  1466  3954       L1    12  1.00

> <Gold.PLP.Chemscore.Internal.Correction>
0.0001

> <Gold.Protein.RotatedTorsions>
[ 3412  950  949  948 ] final -139.19 input   60.00 | X-H torsion
[ 3476 1244 1243 1240 ] final  -88.71 input   60.00 | X-H torsion
[ 2649 1223 1224 1225 ] final -167.42 input   60.00 | X-H torsion
[ 4380 1912 1911 1909 ] final  -26.09 input   60.00 | X-H torsion
[ 3084  621  620  617 ] final  138.04 input   60.00 | X-H torsion

> <Gold.Protein.ActiveResidues>
 HIS54   GLU57   HIS58   ALA61   PHE62   ILE64   ARG65   ASP75   ILE76   ILE77  
 ASP78   ILE79   SER80   PRO81   ILE118  PRO119  ALA120  ALA121  ASN122  LYS124 
 GLN125  CYS126  GLY127  CO701   VAL4    GLU5    SER6    PHE7    GLU8    LEU9   
 HIS11   ARG20   HIS21   CYS22   GLY23   VAL24   HIS25   LYS35   ARG39   MET82  
 GLY83   CYS84   TYR89  

> <Gold.Protein.RotatedAtoms>
  -21.4045   38.3229  -16.0615 H   0  0  0  0  0  0  0  0  0  0  0  0  # atno 2649 bound_to 1223
  -21.0023   37.2050  -17.2172 H   0  0  0  0  0  0  0  0  0  0  0  0  # atno 2650 bound_to 1223
  -17.9796   27.7666  -13.3806 H   0  0  0  0  0  0  0  0  0  0  0  0  # atno 3084 bound_to 621 
  -28.2006   39.2119  -29.3379 H   0  0  0  0  0  0  0  0  0  0  0  0  # atno 3412 bound_to 950 
  -28.9023   38.4593  -28.0385 H   0  0  0  0  0  0  0  0  0  0  0  0  # atno 3413 bound_to 950 
  -27.7276   37.6816  -28.9117 H   0  0  0  0  0  0  0  0  0  0  0  0  # atno 3414 bound_to 950 
  -24.4328   32.5011  -20.3277 H   0  0  0  0  0  0  0  0  0  0  0  0  # atno 3476 bound_to 1244
  -21.2391   30.7622  -19.5216 H   0  0  0  0  0  0  0  0  0  0  0  0  # atno 4380 bound_to 1912
  -23.2614   31.4478  -19.9199 LP  0  0  0  0  0  0  0  0  0  0  0  0  # atno 4866 bound_to 1244
  -23.2935   32.0981  -21.4174 LP  0  0  0  0  0  0  0  0  0  0  0  0  # atno 4867 bound_to 1244
  -20.2227   38.6526  -17.1576 LP  0  0  0  0  0  0  0  0  0  0  0  0  # atno 4874 bound_to 1223
  -19.9882   31.2022  -20.4648 LP  0  0  0  0  0  0  0  0  0  0  0  0  # atno 4875 bound_to 1912
  -20.2024   31.9060  -19.0069 LP  0  0  0  0  0  0  0  0  0  0  0  0  # atno 4876 bound_to 1912
  -19.1413   28.8460  -13.0151 LP  0  0  0  0  0  0  0  0  0  0  0  0  # atno 4881 bound_to 621 
  -19.4672   27.6000  -14.0190 LP  0  0  0  0  0  0  0  0  0  0  0  0  # atno 4882 bound_to 621 

$$$$
Compound 55|Decoys_protonated|sdf|55|dock1
  -GOLD-   6122416173D 1   1.00000     0.00000

 35 36  0  0  0  0  0  0  0  0  1 V2000
  -17.9023   35.6582  -16.1189 S   0  0  0  0  0  0  0  0  0  0  0  0
  -16.9327   35.1074  -17.0344 O   0  0  0  0  0  0  0  0  0  0  0  0
  -18.2422   37.0598  -16.1213 O   0  0  0  0  0  0  0  0  0  0  0  0
  -19.2987   34.7494  -16.2202 N   0  0  0  0  0  0  0  0  0  0  0  0
  -17.3568   35.2429  -14.5894 N   0  0  0  0  0  0  0  0  0  0  0  0
  -19.2974   33.3886  -15.6289 C   0  0  0  0  0  0  0  0  0  0  0  0
  -20.0201   34.7694  -17.5245 C   0  0  0  0  0  0  0  0  0  0  0  0
  -17.2408   36.3213  -13.6018 C   0  0  0  0  0  0  0  0  0  0  0  0
  -20.7415   32.8927  -15.4166 C   0  0  0  0  0  0  0  0  0  0  0  0
  -21.4691   34.2789  -17.3494 C   0  0  0  0  0  0  0  0  0  0  0  0
  -21.5210   32.9692  -16.6655 N   0  0  0  0  0  0  0  0  0  0  0  0
  -22.7423   32.3001  -16.7362 C   0  0  0  0  0  0  0  0  0  0  0  0
  -22.8302   31.1949  -17.5011 N   0  0  0  0  0  0  0  0  0  0  0  0
  -23.8389   32.7248  -16.0089 C   0  0  0  0  0  0  0  0  0  0  0  0
  -24.0107   30.5497  -17.5685 C   0  0  0  0  0  0  0  0  0  0  0  0
  -25.0005   31.9946  -16.1267 C   0  0  0  0  0  0  0  0  0  0  0  0
  -25.1178   30.9064  -16.9000 N   0  0  0  0  0  0  0  0  0  0  0  0
  -24.0762   29.3169  -18.4137 C   0  0  0  0  0  0  0  0  0  0  0  0
  -16.4867   34.7200  -14.7047 H   0  0  0  0  0  0  0  0  0  0  0  0
  -18.7875   33.3885  -14.6605 H   0  0  0  0  0  0  0  0  0  0  0  0
  -18.7748   32.6974  -16.2997 H   0  0  0  0  0  0  0  0  0  0  0  0
  -20.0490   35.7836  -17.9356 H   0  0  0  0  0  0  0  0  0  0  0  0
  -19.4957   34.1230  -18.2386 H   0  0  0  0  0  0  0  0  0  0  0  0
  -18.1648   36.8943  -13.5092 H   0  0  0  0  0  0  0  0  0  0  0  0
  -16.4125   36.9870  -13.8604 H   0  0  0  0  0  0  0  0  0  0  0  0
  -17.0211   35.8777  -12.6261 H   0  0  0  0  0  0  0  0  0  0  0  0
  -21.2326   33.5067  -14.6506 H   0  0  0  0  0  0  0  0  0  0  0  0
  -20.6797   31.8701  -15.0314 H   0  0  0  0  0  0  0  0  0  0  0  0
  -21.9155   34.2181  -18.3499 H   0  0  0  0  0  0  0  0  0  0  0  0
  -22.0347   35.0167  -16.7650 H   0  0  0  0  0  0  0  0  0  0  0  0
  -23.8040   33.5736  -15.3424 H   0  0  0  0  0  0  0  0  0  0  0  0
  -25.8943   32.2729  -15.5764 H   0  0  0  0  0  0  0  0  0  0  0  0
  -25.0865   29.1739  -18.8094 H   0  0  0  0  0  0  0  0  0  0  0  0
  -23.3852   29.3923  -19.2590 H   0  0  0  0  0  0  0  0  0  0  0  0
  -23.8052   28.4438  -17.8131 H   0  0  0  0  0  0  0  0  0  0  0  0
  1  2  2  0  0  0  0
  1  3  2  0  0  0  0
  1  4  1  0  0  0  0
  1  5  1  0  0  0  0
  4  6  1  0  0  0  0
  4  7  1  0  0  0  0
  5  8  1  0  0  0  0
  5 19  1  0  0  0  0
  6  9  1  0  0  0  0
  6 20  1  0  0  0  0
  6 21  1  0  0  0  0
  7 10  1  0  0  0  0
  7 22  1  0  0  0  0
  7 23  1  0  0  0  0
  8 24  1  0  0  0  0
  8 25  1  0  0  0  0
  8 26  1  0  0  0  0
  9 11  1  0  0  0  0
  9 27  1  0  0  0  0
  9 28  1  0  0  0  0
 10 11  1  0  0  0  0
 10 29  1  0  0  0  0
 10 30  1  0  0  0  0
 11 12  1  0  0  0  0
 12 13  2  0  0  0  0
 12 14  1  0  0  0  0
 13 15  1  0  0  0  0
 14 16  2  0  0  0  0
 14 31  1  0  0  0  0
 15 17  2  0  0  0  0
 15 18  1  0  0  0  0
 16 17  1  0  0  0  0
 16 32  1  0  0  0  0
 18 33  1  0  0  0  0
 18 34  1  0  0  0  0
 18 35  1  0  0  0  0
M  END
>  <Column 1>
CNS(=O)(=O)N1CCN(c2ccnc(C)n2)CC1 ZINC000000006024

>  <Total Molweight>
271.344

>  <cLogP>
-0.1573

>  <cLogS>
-0.519

>  <H-Acceptors>
7

>  <H-Donors>
1

>  <Total Surface Area>
197.48

>  <MMFF94 Energy>
-166.87

> <Gold.Version>
5.8.1

> <Gold.Id.Protein>
ID|2FQT|mol2

> <Gold.PLP.Fitness>
48.4486

> <Gold.PLP.PLP>
-41.2784

> <Gold.PLP.part.hbond>
-4.3612

> <Gold.PLP.part.metal>
0.0000

> <Gold.PLP.part.buried>
-7.6154

> <Gold.PLP.part.nonpolar>
-30.2318

> <Gold.PLP.part.repulsive>
0.2794

> <Gold.PLP.ligand.clash>
0.0000

> <Gold.PLP.ligand.torsion>
0.7682

> <Gold.PLP.Chemscore.Hbond>
2.5326

> <Gold.PLP.Chemscore.CHOScore>
0.0000

> <Gold.PLP.Chemscore.Metal>
0.0000

> <Gold.Chemscore.Hbonds>
donor molecule, donor type, donor heavy atom, donor atom, acceptor molecule, acceptor atom, score
      L1  H     5    19       P1   595  1.00
      P1  H  1912  4380       L1    13  0.59
      P1  H  1466  3954       L1     2  0.94

> <Gold.PLP.Chemscore.Internal.Correction>
1.1086

> <Gold.Protein.RotatedTorsions>
[ 3412  950  949  948 ] final   47.18 input   60.00 | X-H torsion
[ 3476 1244 1243 1240 ] final  154.08 input   60.00 | X-H torsion
[ 2649 1223 1224 1225 ] final  121.61 input   60.00 | X-H torsion
[ 4380 1912 1911 1909 ] final   17.86 input   60.00 | X-H torsion
[ 3084  621  620  617 ] final   54.48 input   60.00 | X-H torsion

> <Gold.Protein.ActiveResidues>
 HIS54   GLU57   HIS58   ALA61   PHE62   ILE64   ARG65   ASP75   ILE76   ILE77  
 ASP78   ILE79   SER80   PRO81   ILE118  PRO119  ALA120  ALA121  ASN122  LYS124 
 GLN125  CYS126  GLY127  CO701   VAL4    GLU5    SER6    PHE7    GLU8    LEU9   
 HIS11   ARG20   HIS21   CYS22   GLY23   VAL24   HIS25   LYS35   ARG39   MET82  
 GLY83   CYS84   TYR89  

> <Gold.Protein.RotatedAtoms>
  -20.6131   38.9412  -16.5364 H   0  0  0  0  0  0  0  0  0  0  0  0  # atno 2649 bound_to 1223
  -21.5668   37.5992  -16.3453 H   0  0  0  0  0  0  0  0  0  0  0  0  # atno 2650 bound_to 1223
  -18.5765   28.7452  -12.8881 H   0  0  0  0  0  0  0  0  0  0  0  0  # atno 3084 bound_to 621 
  -28.2773   37.6449  -28.2470 H   0  0  0  0  0  0  0  0  0  0  0  0  # atno 3412 bound_to 950 
  -27.6856   38.5406  -29.5098 H   0  0  0  0  0  0  0  0  0  0  0  0  # atno 3413 bound_to 950 
  -28.8676   39.1673  -28.5314 H   0  0  0  0  0  0  0  0  0  0  0  0  # atno 3414 bound_to 950 
  -23.2954   31.4655  -19.8939 H   0  0  0  0  0  0  0  0  0  0  0  0  # atno 3476 bound_to 1244
  -21.1111   31.1895  -18.9813 H   0  0  0  0  0  0  0  0  0  0  0  0  # atno 4380 bound_to 1912
  -23.2607   32.0684  -21.4049 LP  0  0  0  0  0  0  0  0  0  0  0  0  # atno 4866 bound_to 1244
  -24.4396   32.5205  -20.3693 LP  0  0  0  0  0  0  0  0  0  0  0  0  # atno 4867 bound_to 1244
  -20.4463   37.6550  -17.5488 LP  0  0  0  0  0  0  0  0  0  0  0  0  # atno 4874 bound_to 1223
  -20.5437   30.7675  -20.4469 LP  0  0  0  0  0  0  0  0  0  0  0  0  # atno 4875 bound_to 1912
  -19.7759   31.9105  -19.5690 LP  0  0  0  0  0  0  0  0  0  0  0  0  # atno 4876 bound_to 1912
  -19.7492   28.0625  -13.7863 LP  0  0  0  0  0  0  0  0  0  0  0  0  # atno 4881 bound_to 621 
  -18.2582   27.3980  -13.7437 LP  0  0  0  0  0  0  0  0  0  0  0  0  # atno 4882 bound_to 621 

$$$$
Compound 56|Decoys_protonated|sdf|56|dock3
  -GOLD-   6122416173D 1   1.00000     0.00000

 29 30  0  0  0  0  0  0  0  0  1 V2000
  -18.9377   36.4126  -17.7951 N   0  0  0  0  0  0  0  0  0  0  0  0
  -19.9554   35.7041  -17.3268 N   0  0  0  0  0  0  0  0  0  0  0  0
  -17.8926   35.5749  -17.7421 N   0  0  0  0  0  0  0  0  0  0  0  0
  -19.4647   34.4560  -17.0136 C   0  0  0  0  0  0  0  0  0  0  0  0
  -18.1478   34.3459  -17.2585 N   0  0  0  0  0  0  0  0  0  0  0  0
  -16.5767   35.9687  -18.1883 C   0  0  0  0  0  0  0  0  0  0  0  0
  -20.3338   33.4556  -16.4705 C   0  0  0  0  0  0  0  0  0  0  0  0
  -16.0667   35.0852  -19.3118 C   0  0  0  0  0  0  0  0  0  0  0  0
  -19.9162   32.2967  -15.9225 C   0  0  0  0  0  0  0  0  0  0  0  0
  -21.8086   33.7992  -16.5567 C   0  0  0  0  0  0  0  0  0  0  0  0
  -20.8863   31.2719  -15.4097 C   0  0  0  0  0  0  0  0  0  0  0  0
  -22.6777   32.9499  -15.7067 N   0  0  0  0  0  0  0  0  0  0  0  0
  -22.3304   31.5327  -15.8685 C   0  0  0  0  0  0  0  0  0  0  0  0
  -24.0850   33.1869  -16.0187 C   0  0  0  0  0  0  0  0  0  0  0  0
  -16.6329   37.0132  -18.5135 H   0  0  0  0  0  0  0  0  0  0  0  0
  -15.9047   35.9214  -17.3246 H   0  0  0  0  0  0  0  0  0  0  0  0
  -16.7316   35.1290  -20.1810 H   0  0  0  0  0  0  0  0  0  0  0  0
  -15.0698   35.4079  -19.6271 H   0  0  0  0  0  0  0  0  0  0  0  0
  -16.0031   34.0391  -18.9933 H   0  0  0  0  0  0  0  0  0  0  0  0
  -18.8576   32.0655  -15.8400 H   0  0  0  0  0  0  0  0  0  0  0  0
  -22.1186   33.7237  -17.6085 H   0  0  0  0  0  0  0  0  0  0  0  0
  -21.9647   34.8366  -16.2338 H   0  0  0  0  0  0  0  0  0  0  0  0
  -20.8371   31.2666  -14.3141 H   0  0  0  0  0  0  0  0  0  0  0  0
  -20.5786   30.2781  -15.7545 H   0  0  0  0  0  0  0  0  0  0  0  0
  -22.4507   31.2203  -16.9149 H   0  0  0  0  0  0  0  0  0  0  0  0
  -22.9981   30.9046  -15.2657 H   0  0  0  0  0  0  0  0  0  0  0  0
  -24.3409   34.2413  -15.8663 H   0  0  0  0  0  0  0  0  0  0  0  0
  -24.3328   32.9170  -17.0517 H   0  0  0  0  0  0  0  0  0  0  0  0
  -24.7292   32.6073  -15.3483 H   0  0  0  0  0  0  0  0  0  0  0  0
  1  2  2  0  0  0  0
  1  3  1  0  0  0  0
  2  4  1  0  0  0  0
  3  5  1  0  0  0  0
  3  6  1  0  0  0  0
  4  7  1  0  0  0  0
  4  5  2  0  0  0  0
  6  8  1  0  0  0  0
  6 15  1  0  0  0  0
  6 16  1  0  0  0  0
  7  9  2  0  0  0  0
  7 10  1  0  0  0  0
  8 17  1  0  0  0  0
  8 18  1  0  0  0  0
  8 19  1  0  0  0  0
  9 11  1  0  0  0  0
  9 20  1  0  0  0  0
 10 12  1  0  0  0  0
 10 21  1  0  0  0  0
 10 22  1  0  0  0  0
 11 13  1  0  0  0  0
 11 23  1  0  0  0  0
 11 24  1  0  0  0  0
 12 14  1  0  0  0  0
 12 13  1  0  0  0  0
 13 25  1  0  0  0  0
 13 26  1  0  0  0  0
 14 27  1  0  0  0  0
 14 28  1  0  0  0  0
 14 29  1  0  0  0  0
M  END
>  <Column 1>
CCn1nnc(C2=CCCN(C)C2)n1 ZINC000000006302

>  <Total Molweight>
193.253

>  <cLogP>
0.2964

>  <cLogS>
0.763

>  <H-Acceptors>
5

>  <H-Donors>
0

>  <Total Surface Area>
159.81

>  <MMFF94 Energy>
30.402

> <Gold.Version>
5.8.1

> <Gold.Id.Protein>
ID|2FQT|mol2

> <Gold.PLP.Fitness>
43.3044

> <Gold.PLP.PLP>
-36.7099

> <Gold.PLP.part.hbond>
-4.6146

> <Gold.PLP.part.metal>
0.0000

> <Gold.PLP.part.buried>
-5.2338

> <Gold.PLP.part.nonpolar>
-27.3043

> <Gold.PLP.part.repulsive>
0.0500

> <Gold.PLP.ligand.clash>
0.0000

> <Gold.PLP.ligand.torsion>
0.0598

> <Gold.PLP.Chemscore.Hbond>
2.2377

> <Gold.PLP.Chemscore.CHOScore>
0.0000

> <Gold.PLP.Chemscore.Metal>
0.0000

> <Gold.Chemscore.Hbonds>
donor molecule, donor type, donor heavy atom, donor atom, acceptor molecule, acceptor atom, score
      P1  H  1223  2649       L1     2  0.58
      P1  H  1223  2650       L1     1  0.05
      P1  H  1230  2756       L1     1  0.74
      P1  H  1466  3954       L1     5  0.88

> <Gold.PLP.Chemscore.Internal.Correction>
0.0008

> <Gold.Protein.RotatedTorsions>
[ 3412  950  949  948 ] final  -97.56 input   60.00 | X-H torsion
[ 3476 1244 1243 1240 ] final  -14.00 input   60.00 | X-H torsion
[ 2649 1223 1224 1225 ] final  -69.52 input   60.00 | X-H torsion
[ 4380 1912 1911 1909 ] final  -26.16 input   60.00 | X-H torsion
[ 3084  621  620  617 ] final  170.77 input   60.00 | X-H torsion

> <Gold.Protein.ActiveResidues>
 HIS54   GLU57   HIS58   ALA61   PHE62   ILE64   ARG65   ASP75   ILE76   ILE77  
 ASP78   ILE79   SER80   PRO81   ILE118  PRO119  ALA120  ALA121  ASN122  LYS124 
 GLN125  CYS126  GLY127  CO701   VAL4    GLU5    SER6    PHE7    GLU8    LEU9   
 HIS11   ARG20   HIS21   CYS22   GLY23   VAL24   HIS25   LYS35   ARG39   MET82  
 GLY83   CYS84   TYR89  

> <Gold.Protein.RotatedAtoms>
  -21.2522   37.1949  -16.9490 H   0  0  0  0  0  0  0  0  0  0  0  0  # atno 2649 bound_to 1223
  -20.1709   38.3728  -17.3852 H   0  0  0  0  0  0  0  0  0  0  0  0  # atno 2650 bound_to 1223
  -18.2206   27.4284  -13.7060 H   0  0  0  0  0  0  0  0  0  0  0  0  # atno 3084 bound_to 621 
  -28.6704   39.3180  -28.8578 H   0  0  0  0  0  0  0  0  0  0  0  0  # atno 3412 bound_to 950 
  -28.5630   37.8703  -28.0579 H   0  0  0  0  0  0  0  0  0  0  0  0  # atno 3413 bound_to 950 
  -27.5972   38.1645  -29.3724 H   0  0  0  0  0  0  0  0  0  0  0  0  # atno 3414 bound_to 950 
  -23.8841   32.5050  -21.3224 H   0  0  0  0  0  0  0  0  0  0  0  0  # atno 3476 bound_to 1244
  -21.2390   30.7617  -19.5226 H   0  0  0  0  0  0  0  0  0  0  0  0  # atno 4380 bound_to 1912
  -24.1967   32.0916  -19.7799 LP  0  0  0  0  0  0  0  0  0  0  0  0  # atno 4866 bound_to 1244
  -22.9107   31.4503  -20.5556 LP  0  0  0  0  0  0  0  0  0  0  0  0  # atno 4867 bound_to 1244
  -21.1919   38.6134  -16.1177 LP  0  0  0  0  0  0  0  0  0  0  0  0  # atno 4874 bound_to 1223
  -19.9875   31.2030  -20.4644 LP  0  0  0  0  0  0  0  0  0  0  0  0  # atno 4875 bound_to 1912
  -20.2033   31.9057  -19.0063 LP  0  0  0  0  0  0  0  0  0  0  0  0  # atno 4876 bound_to 1912
  -18.6302   28.7746  -12.8887 LP  0  0  0  0  0  0  0  0  0  0  0  0  # atno 4881 bound_to 621 
  -19.7356   28.0119  -13.8177 LP  0  0  0  0  0  0  0  0  0  0  0  0  # atno 4882 bound_to 621 

$$$$
Compound 57|Decoys_protonated|sdf|57|dock1
  -GOLD-   6122416173D 1   1.00000     0.00000

 26 27  0  0  0  0  0  0  0  0  3 V2000
  -18.1348   35.6233  -18.1602 O   0  0  0  0  0  0  0  0  0  0  0  0
  -19.2123   35.3976  -17.5924 N   0  3  0  0  0  0  0  0  0  0  0  0
  -20.3328   35.5346  -18.0999 O   0  5  0  0  0  0  0  0  0  0  0  0
  -19.1507   34.8899  -16.2298 C   0  0  0  0  0  0  0  0  0  0  0  0
  -19.9692   33.7976  -15.8891 C   0  0  0  0  0  0  0  0  0  0  0  0
  -18.3062   35.5256  -15.2838 C   0  0  0  0  0  0  0  0  0  0  0  0
  -20.7772   33.1198  -16.8227 N   0  0  0  0  0  0  0  0  0  0  0  0
  -19.9781   33.3664  -14.5608 C   0  0  0  0  0  0  0  0  0  0  0  0
  -18.3567   35.0806  -13.9432 C   0  0  0  0  0  0  0  0  0  0  0  0
  -17.4063   36.6743  -15.6742 C   0  0  0  0  0  0  0  0  0  0  0  0
  -21.5966   32.0581  -16.5055 C   0  0  0  0  0  0  0  0  0  0  0  0
  -20.7926   32.3012  -14.1664 N   0  0  0  0  0  0  0  0  0  0  0  0
  -19.1872   33.9989  -13.6003 C   0  0  0  0  0  0  0  0  0  0  0  0
  -17.5274   35.7191  -12.8582 C   0  0  0  0  0  0  0  0  0  0  0  0
  -22.2697   31.4882  -17.3526 O   0  0  0  0  0  0  0  0  0  0  0  0
  -21.6189   31.6144  -15.0263 C   0  0  0  0  0  0  0  0  0  0  0  0
  -22.3304   30.6981  -14.6393 O   0  0  0  0  0  0  0  0  0  0  0  0
  -20.7427   33.3499  -17.8124 H   0  0  0  0  0  0  0  0  0  0  0  0
  -17.0176   36.5514  -16.6902 H   0  0  0  0  0  0  0  0  0  0  0  0
  -16.5224   36.7342  -15.0325 H   0  0  0  0  0  0  0  0  0  0  0  0
  -17.9535   37.6194  -15.6051 H   0  0  0  0  0  0  0  0  0  0  0  0
  -20.8157   31.9908  -13.2038 H   0  0  0  0  0  0  0  0  0  0  0  0
  -19.2134   33.6518  -12.5682 H   0  0  0  0  0  0  0  0  0  0  0  0
  -16.4702   35.4729  -12.9979 H   0  0  0  0  0  0  0  0  0  0  0  0
  -17.8257   35.3667  -11.8650 H   0  0  0  0  0  0  0  0  0  0  0  0
  -17.6579   36.8059  -12.8639 H   0  0  0  0  0  0  0  0  0  0  0  0
  1  2  2  0  0  0  0
  2  3  1  0  0  0  0
  2  4  1  0  0  0  0
  4  5  2  0  0  0  0
  4  6  1  0  0  0  0
  5  7  1  0  0  0  0
  5  8  1  0  0  0  0
  6  9  2  0  0  0  0
  6 10  1  0  0  0  0
  7 11  1  0  0  0  0
  7 18  1  0  0  0  0
  8 12  1  0  0  0  0
  8 13  2  0  0  0  0
  9 14  1  0  0  0  0
  9 13  1  0  0  0  0
 10 19  1  0  0  0  0
 10 20  1  0  0  0  0
 10 21  1  0  0  0  0
 11 15  2  0  0  0  0
 11 16  1  0  0  0  0
 12 16  1  0  0  0  0
 12 22  1  0  0  0  0
 13 23  1  0  0  0  0
 14 24  1  0  0  0  0
 14 25  1  0  0  0  0
 14 26  1  0  0  0  0
 16 17  2  0  0  0  0
M  CHG  1   2   1
M  CHG  1   3  -1
M  END
>  <Column 1>
Cc1cc2[nH]c(=O)c(=O)[nH]c2c([N+](=O)[O-])c1C ZINC000000006308

>  <Total Molweight>
235.198

>  <cLogP>
-0.8284

>  <cLogS>
-2.994

>  <H-Acceptors>
6

>  <H-Donors>
2

>  <Total Surface Area>
166.37

>  <MMFF94 Energy>
98.936

> <Gold.Version>
5.8.1

> <Gold.Id.Protein>
ID|2FQT|mol2

> <Gold.PLP.Fitness>
42.2880

> <Gold.PLP.PLP>
-30.5727

> <Gold.PLP.part.hbond>
-5.0000

> <Gold.PLP.part.metal>
0.0000

> <Gold.PLP.part.buried>
-3.7545

> <Gold.PLP.part.nonpolar>
-23.6455

> <Gold.PLP.part.repulsive>
1.0549

> <Gold.PLP.ligand.clash>
0.0000

> <Gold.PLP.ligand.torsion>
0.7821

> <Gold.PLP.Chemscore.Hbond>
4.0000

> <Gold.PLP.Chemscore.CHOScore>
0.0000

> <Gold.PLP.Chemscore.Metal>
0.0000

> <Gold.Chemscore.Hbonds>
donor molecule, donor type, donor heavy atom, donor atom, acceptor molecule, acceptor atom, score
      L1  H    12    22       P1   611  1.00
      P1  H  1223  2650       L1     3  1.00
      P1  H  1912  4380       L1    15  1.00
      P1  H  1239  3336       L1     3  1.00

> <Gold.PLP.Chemscore.Internal.Correction>
1.2796

> <Gold.Protein.RotatedTorsions>
[ 3412  950  949  948 ] final -154.21 input   60.00 | X-H torsion
[ 3476 1244 1243 1240 ] final  116.30 input   60.00 | X-H torsion
[ 2649 1223 1224 1225 ] final -151.72 input   60.00 | X-H torsion
[ 4380 1912 1911 1909 ] final   17.69 input   60.00 | X-H torsion
[ 3084  621  620  617 ] final -128.52 input   60.00 | X-H torsion

> <Gold.Protein.ActiveResidues>
 HIS54   GLU57   HIS58   ALA61   PHE62   ILE64   ARG65   ASP75   ILE76   ILE77  
 ASP78   ILE79   SER80   PRO81   ILE118  PRO119  ALA120  ALA121  ASN122  LYS124 
 GLN125  CYS126  GLY127  CO701   VAL4    GLU5    SER6    PHE7    GLU8    LEU9   
 HIS11   ARG20   HIS21   CYS22   GLY23   VAL24   HIS25   LYS35   ARG39   MET82  
 GLY83   CYS84   TYR89  

> <Gold.Protein.RotatedAtoms>
  -21.5085   38.0858  -16.0986 H   0  0  0  0  0  0  0  0  0  0  0  0  # atno 2649 bound_to 1223
  -20.8107   37.2896  -17.3738 H   0  0  0  0  0  0  0  0  0  0  0  0  # atno 2650 bound_to 1223
  -19.1005   27.3744  -14.0501 H   0  0  0  0  0  0  0  0  0  0  0  0  # atno 3084 bound_to 621 
  -28.0275   39.0695  -29.4489 H   0  0  0  0  0  0  0  0  0  0  0  0  # atno 3412 bound_to 950 
  -28.9517   38.6880  -28.1270 H   0  0  0  0  0  0  0  0  0  0  0  0  # atno 3413 bound_to 950 
  -27.8514   37.5953  -28.7122 H   0  0  0  0  0  0  0  0  0  0  0  0  # atno 3414 bound_to 950 
  -22.9586   31.4226  -20.3960 H   0  0  0  0  0  0  0  0  0  0  0  0  # atno 3476 bound_to 1244
  -21.1124   31.1875  -18.9828 H   0  0  0  0  0  0  0  0  0  0  0  0  # atno 4380 bound_to 1912
  -23.7506   32.4325  -21.3963 LP  0  0  0  0  0  0  0  0  0  0  0  0  # atno 4866 bound_to 1244
  -24.2890   32.1995  -19.8723 LP  0  0  0  0  0  0  0  0  0  0  0  0  # atno 4867 bound_to 1244
  -20.3090   38.8028  -16.9669 LP  0  0  0  0  0  0  0  0  0  0  0  0  # atno 4874 bound_to 1223
  -20.5414   30.7688  -20.4479 LP  0  0  0  0  0  0  0  0  0  0  0  0  # atno 4875 bound_to 1912
  -19.7769   31.9112  -19.5664 LP  0  0  0  0  0  0  0  0  0  0  0  0  # atno 4876 bound_to 1912
  -17.9823   28.1196  -13.1321 LP  0  0  0  0  0  0  0  0  0  0  0  0  # atno 4881 bound_to 621 
  -19.4974   28.7214  -13.2278 LP  0  0  0  0  0  0  0  0  0  0  0  0  # atno 4882 bound_to 621 

$$$$
Compound 58|Decoys_protonated|sdf|58|dock1
  -GOLD-   6122416173D 1   1.00000     0.00000

 16 16  0  0  0  0  0  0  0  0  1 V2000
  -18.9989   33.5801  -18.6459 O   0  0  0  0  0  0  0  0  0  0  0  0
  -19.7133   33.4758  -17.4841 C   0  0  0  0  0  0  0  0  0  0  0  0
  -20.7069   34.4129  -17.2075 C   0  0  0  0  0  0  0  0  0  0  0  0
  -19.4489   32.4429  -16.5826 C   0  0  0  0  0  0  0  0  0  0  0  0
  -20.9528   35.4172  -18.1006 O   0  0  0  0  0  0  0  0  0  0  0  0
  -21.4379   34.3243  -16.0268 C   0  0  0  0  0  0  0  0  0  0  0  0
  -20.1849   32.3348  -15.3987 C   0  0  0  0  0  0  0  0  0  0  0  0
  -21.1705   33.2885  -15.1257 C   0  0  0  0  0  0  0  0  0  0  0  0
  -19.9119   31.3295  -14.4885 N   0  0  0  0  0  0  0  0  0  0  0  0
  -19.2589   32.8604  -19.2407 H   0  0  0  0  0  0  0  0  0  0  0  0
  -18.6710   31.7173  -16.7955 H   0  0  0  0  0  0  0  0  0  0  0  0
  -21.0236   36.2557  -17.6205 H   0  0  0  0  0  0  0  0  0  0  0  0
  -22.2120   35.0463  -15.7885 H   0  0  0  0  0  0  0  0  0  0  0  0
  -21.7426   33.2322  -14.2033 H   0  0  0  0  0  0  0  0  0  0  0  0
  -19.1761   30.6607  -14.6692 H   0  0  0  0  0  0  0  0  0  0  0  0
  -20.3458   31.3280  -13.5758 H   0  0  0  0  0  0  0  0  0  0  0  0
  1  2  1  0  0  0  0
  1 10  1  0  0  0  0
  2  3  2  0  0  0  0
  2  4  1  0  0  0  0
  3  5  1  0  0  0  0
  3  6  1  0  0  0  0
  4  7  2  0  0  0  0
  4 11  1  0  0  0  0
  5 12  1  0  0  0  0
  6  8  2  0  0  0  0
  6 13  1  0  0  0  0
  7  9  1  0  0  0  0
  7  8  1  0  0  0  0
  8 14  1  0  0  0  0
  9 15  1  0  0  0  0
  9 16  1  0  0  0  0
M  END
>  <Column 1>
Nc1ccc(O)c(O)c1 ZINC000000006364

>  <Total Molweight>
125.127

>  <cLogP>
0.2909

>  <cLogS>
-1.1

>  <H-Acceptors>
3

>  <H-Donors>
3

>  <Total Surface Area>
94.48

>  <MMFF94 Energy>
5.9598

> <Gold.Version>
5.8.1

> <Gold.Id.Protein>
ID|2FQT|mol2

> <Gold.PLP.Fitness>
37.4364

> <Gold.PLP.PLP>
-23.5404

> <Gold.PLP.part.hbond>
-6.0000

> <Gold.PLP.part.metal>
0.0000

> <Gold.PLP.part.buried>
-2.7375

> <Gold.PLP.part.nonpolar>
-14.3413

> <Gold.PLP.part.repulsive>
0.1129

> <Gold.PLP.ligand.clash>
0.0000

> <Gold.PLP.ligand.torsion>
0.0000

> <Gold.PLP.Chemscore.Hbond>
4.6320

> <Gold.PLP.Chemscore.CHOScore>
0.0000

> <Gold.PLP.Chemscore.Metal>
0.0000

> <Gold.Chemscore.Hbonds>
donor molecule, donor type, donor heavy atom, donor atom, acceptor molecule, acceptor atom, score
      L1  H     1    10       P1  1912  0.98
      L1  H     5    12       P1  1223  1.00
      L1  H     9    15       P1   606  0.66
      L1  H     9    16       P1   611  1.00
      P1  H  1239  3336       L1     5  1.00

> <Gold.PLP.Chemscore.Internal.Correction>
0.0000

> <Gold.Protein.RotatedTorsions>
[ 3412  950  949  948 ] final   49.06 input   60.00 | X-H torsion
[ 3476 1244 1243 1240 ] final  -81.82 input   60.00 | X-H torsion
[ 2649 1223 1224 1225 ] final   64.75 input   60.00 | X-H torsion
[ 4380 1912 1911 1909 ] final  -94.17 input   60.00 | X-H torsion
[ 3084  621  620  617 ] final -123.60 input   60.00 | X-H torsion

> <Gold.Protein.ActiveResidues>
 HIS54   GLU57   HIS58   ALA61   PHE62   ILE64   ARG65   ASP75   ILE76   ILE77  
 ASP78   ILE79   SER80   PRO81   ILE118  PRO119  ALA120  ALA121  ASN122  LYS124 
 GLN125  CYS126  GLY127  CO701   VAL4    GLU5    SER6    PHE7    GLU8    LEU9   
 HIS11   ARG20   HIS21   CYS22   GLY23   VAL24   HIS25   LYS35   ARG39   MET82  
 GLY83   CYS84   TYR89  

> <Gold.Protein.RotatedAtoms>
  -20.1841   38.5660  -17.2473 H   0  0  0  0  0  0  0  0  0  0  0  0  # atno 2649 bound_to 1223
  -21.3372   38.4349  -16.0640 H   0  0  0  0  0  0  0  0  0  0  0  0  # atno 2650 bound_to 1223
  -19.1741   27.4065  -14.0526 H   0  0  0  0  0  0  0  0  0  0  0  0  # atno 3084 bound_to 621 
  -28.2550   37.6335  -28.2657 H   0  0  0  0  0  0  0  0  0  0  0  0  # atno 3412 bound_to 950 
  -27.6970   38.5693  -29.5148 H   0  0  0  0  0  0  0  0  0  0  0  0  # atno 3413 bound_to 950 
  -28.8785   39.1500  -28.5077 H   0  0  0  0  0  0  0  0  0  0  0  0  # atno 3414 bound_to 950 
  -24.4295   32.5423  -20.4324 H   0  0  0  0  0  0  0  0  0  0  0  0  # atno 3476 bound_to 1244
  -20.6479   30.7173  -20.3859 H   0  0  0  0  0  0  0  0  0  0  0  0  # atno 4380 bound_to 1912
  -23.3438   31.4799  -19.8489 LP  0  0  0  0  0  0  0  0  0  0  0  0  # atno 4866 bound_to 1244
  -23.2145   32.0244  -21.3830 LP  0  0  0  0  0  0  0  0  0  0  0  0  # atno 4867 bound_to 1244
  -21.0951   37.2014  -17.1255 LP  0  0  0  0  0  0  0  0  0  0  0  0  # atno 4874 bound_to 1223
  -19.7368   31.8706  -19.6875 LP  0  0  0  0  0  0  0  0  0  0  0  0  # atno 4875 bound_to 1912
  -21.0493   31.2829  -18.9138 LP  0  0  0  0  0  0  0  0  0  0  0  0  # atno 4876 bound_to 1912
  -17.9660   28.0525  -13.1744 LP  0  0  0  0  0  0  0  0  0  0  0  0  # atno 4881 bound_to 621 
  -19.4396   28.7560  -13.1830 LP  0  0  0  0  0  0  0  0  0  0  0  0  # atno 4882 bound_to 621 

$$$$
Compound 59|Decoys_protonated|sdf|59|dock1
  -GOLD-   6122416173D 1   1.00000     0.00000

 21 22  0  0  0  0  0  0  0  0  1 V2000
  -21.6059   31.1273  -15.2538 F   0  0  0  0  0  0  0  0  0  0  0  0
  -22.8499   31.4540  -15.6289 C   0  0  0  0  0  0  0  0  0  0  0  0
  -23.4127   30.8241  -16.7372 C   0  0  0  0  0  0  0  0  0  0  0  0
  -23.5562   32.4008  -14.8991 C   0  0  0  0  0  0  0  0  0  0  0  0
  -24.7023   31.1647  -17.1613 C   0  0  0  0  0  0  0  0  0  0  0  0
  -24.8599   32.7104  -15.2717 C   0  0  0  0  0  0  0  0  0  0  0  0
  -25.3829   30.4739  -18.2614 C   0  0  0  0  0  0  0  0  0  0  0  0
  -25.4313   32.0822  -16.3833 C   0  0  0  0  0  0  0  0  0  0  0  0
  -26.6486   30.6617  -18.6019 N   0  0  0  0  0  0  0  0  0  0  0  0
  -24.8586   29.5388  -19.1254 N   0  0  0  0  0  0  0  0  0  0  0  0
  -26.9585   29.8323  -19.6507 N   0  0  0  0  0  0  0  0  0  0  0  0
  -25.8739   29.1648  -19.9543 C   0  0  0  0  0  0  0  0  0  0  0  0
  -23.4959   29.0967  -19.2564 C   0  0  0  0  0  0  0  0  0  0  0  0
  -22.8291   30.0550  -17.2291 H   0  0  0  0  0  0  0  0  0  0  0  0
  -23.0963   32.8722  -14.0366 H   0  0  0  0  0  0  0  0  0  0  0  0
  -25.4393   33.4284  -14.6967 H   0  0  0  0  0  0  0  0  0  0  0  0
  -26.4619   32.3181  -16.6502 H   0  0  0  0  0  0  0  0  0  0  0  0
  -25.7755   28.4363  -20.7466 H   0  0  0  0  0  0  0  0  0  0  0  0
  -23.3211   28.2947  -18.5359 H   0  0  0  0  0  0  0  0  0  0  0  0
  -23.3338   28.7199  -20.2704 H   0  0  0  0  0  0  0  0  0  0  0  0
  -22.8205   29.9374  -19.0808 H   0  0  0  0  0  0  0  0  0  0  0  0
  1  2  1  0  0  0  0
  2  3  2  0  0  0  0
  2  4  1  0  0  0  0
  3  5  1  0  0  0  0
  3 14  1  0  0  0  0
  4  6  2  0  0  0  0
  4 15  1  0  0  0  0
  5  7  1  0  0  0  0
  5  8  2  0  0  0  0
  6  8  1  0  0  0  0
  6 16  1  0  0  0  0
  7  9  2  0  0  0  0
  7 10  1  0  0  0  0
  8 17  1  0  0  0  0
  9 11  1  0  0  0  0
 10 12  1  0  0  0  0
 10 13  1  0  0  0  0
 11 12  2  0  0  0  0
 12 18  1  0  0  0  0
 13 19  1  0  0  0  0
 13 20  1  0  0  0  0
 13 21  1  0  0  0  0
M  END
>  <Column 1>
Cn1cnnc1-c1cccc(F)c1 ZINC000000006371

>  <Total Molweight>
177.182

>  <cLogP>
1.3061

>  <cLogS>
-2.688

>  <H-Acceptors>
3

>  <H-Donors>
0

>  <Total Surface Area>
138.35

>  <MMFF94 Energy>
16.36

> <Gold.Version>
5.8.1

> <Gold.Id.Protein>
ID|2FQT|mol2

> <Gold.PLP.Fitness>
59.6018

> <Gold.PLP.PLP>
-44.6123

> <Gold.PLP.part.hbond>
-1.0000

> <Gold.PLP.part.metal>
-2.0000

> <Gold.PLP.part.buried>
-6.9349

> <Gold.PLP.part.nonpolar>
-36.1077

> <Gold.PLP.part.repulsive>
0.1406

> <Gold.PLP.ligand.clash>
0.0000

> <Gold.PLP.ligand.torsion>
0.0140

> <Gold.PLP.Chemscore.Hbond>
1.0000

> <Gold.PLP.Chemscore.CHOScore>
0.0000

> <Gold.PLP.Chemscore.Metal>
2.0000

> <Gold.Chemscore.Hbonds>
donor molecule, donor type, donor heavy atom, donor atom, acceptor molecule, acceptor atom, score
      P1  H   966  3428       L1    11  1.00
      P1  M  1222  1222       L1     9  1.00
      P1  M  1222  1222       L1    11  1.00

> <Gold.PLP.Chemscore.Internal.Correction>
0.0175

> <Gold.Protein.RotatedTorsions>
[ 3412  950  949  948 ] final   48.13 input   60.00 | X-H torsion
[ 3476 1244 1243 1240 ] final   14.34 input   60.00 | X-H torsion
[ 2649 1223 1224 1225 ] final   -9.33 input   60.00 | X-H torsion
[ 4380 1912 1911 1909 ] final  -35.82 input   60.00 | X-H torsion
[ 3084  621  620  617 ] final   20.15 input   60.00 | X-H torsion

> <Gold.Protein.ActiveResidues>
 HIS54   GLU57   HIS58   ALA61   PHE62   ILE64   ARG65   ASP75   ILE76   ILE77  
 ASP78   ILE79   SER80   PRO81   ILE118  PRO119  ALA120  ALA121  ASN122  LYS124 
 GLN125  CYS126  GLY127  CO701   VAL4    GLU5    SER6    PHE7    GLU8    LEU9   
 HIS11   ARG20   HIS21   CYS22   GLY23   VAL24   HIS25   LYS35   ARG39   MET82  
 GLY83   CYS84   TYR89  

> <Gold.Protein.RotatedAtoms>
  -20.5489   37.5075  -17.5222 H   0  0  0  0  0  0  0  0  0  0  0  0  # atno 2649 bound_to 1223
  -20.4939   38.9305  -16.6742 H   0  0  0  0  0  0  0  0  0  0  0  0  # atno 2650 bound_to 1223
  -19.1082   28.8422  -13.0033 H   0  0  0  0  0  0  0  0  0  0  0  0  # atno 3084 bound_to 621 
  -28.2661   37.6390  -28.2563 H   0  0  0  0  0  0  0  0  0  0  0  0  # atno 3412 bound_to 950 
  -27.6913   38.5551  -29.5124 H   0  0  0  0  0  0  0  0  0  0  0  0  # atno 3413 bound_to 950 
  -28.8732   39.1587  -28.5194 H   0  0  0  0  0  0  0  0  0  0  0  0  # atno 3414 bound_to 950 
  -23.5076   32.2721  -21.4414 H   0  0  0  0  0  0  0  0  0  0  0  0  # atno 3476 bound_to 1244
  -21.2074   30.7016  -19.6650 H   0  0  0  0  0  0  0  0  0  0  0  0  # atno 4380 bound_to 1912
  -24.4006   32.3721  -20.0847 LP  0  0  0  0  0  0  0  0  0  0  0  0  # atno 4866 bound_to 1244
  -23.0861   31.4044  -20.1310 LP  0  0  0  0  0  0  0  0  0  0  0  0  # atno 4867 bound_to 1244
  -21.5665   37.7559  -16.2535 LP  0  0  0  0  0  0  0  0  0  0  0  0  # atno 4874 bound_to 1223
  -19.8934   31.3153  -20.4030 LP  0  0  0  0  0  0  0  0  0  0  0  0  # atno 4875 bound_to 1912
  -20.3292   31.8540  -18.9243 LP  0  0  0  0  0  0  0  0  0  0  0  0  # atno 4876 bound_to 1912
  -19.4916   27.6232  -14.0109 LP  0  0  0  0  0  0  0  0  0  0  0  0  # atno 4881 bound_to 621 
  -17.9803   27.7395  -13.4032 LP  0  0  0  0  0  0  0  0  0  0  0  0  # atno 4882 bound_to 621 

$$$$
Compound 60|Decoys_protonated|sdf|60|dock3
  -GOLD-   6122416173D 1   1.00000     0.00000

 18 19  0  0  0  0  0  0  0  0  3 V2000
  -17.9419   36.2216  -13.4081 Cl  0  0  0  0  0  0  0  0  0  0  0  0
  -18.9383   35.2999  -14.4615 C   0  0  0  0  0  0  0  0  0  0  0  0
  -19.2363   35.7886  -15.7272 C   0  0  0  0  0  0  0  0  0  0  0  0
  -19.4397   34.0714  -14.0410 C   0  0  0  0  0  0  0  0  0  0  0  0
  -20.0340   35.0668  -16.5913 N   0  3  0  0  0  0  0  0  0  0  0  0
  -20.2442   33.3372  -14.9043 C   0  0  0  0  0  0  0  0  0  0  0  0
  -20.3058   35.5174  -17.7516 O   0  5  0  0  0  0  0  0  0  0  0  0
  -20.5428   33.8314  -16.1781 C   0  0  0  0  0  0  0  0  0  0  0  0
  -20.7583   32.1003  -14.5011 N   0  0  0  0  0  0  0  0  0  0  0  0
  -21.3556   33.0821  -17.0409 N   0  0  0  0  0  0  0  0  0  0  0  0
  -21.5639   31.3143  -15.3027 C   0  0  0  0  0  0  0  0  0  0  0  0
  -21.8959   31.8620  -16.7166 C   0  0  0  0  0  0  0  0  0  0  0  0
  -21.9928   30.2383  -14.9115 O   0  0  0  0  0  0  0  0  0  0  0  0
  -22.6012   31.2325  -17.4912 O   0  0  0  0  0  0  0  0  0  0  0  0
  -18.8933   36.7263  -16.1363 H   0  0  0  0  0  0  0  0  0  0  0  0
  -19.2000   33.6983  -13.0480 H   0  0  0  0  0  0  0  0  0  0  0  0
  -20.5585   31.7178  -13.5847 H   0  0  0  0  0  0  0  0  0  0  0  0
  -21.5461   33.4804  -17.9570 H   0  0  0  0  0  0  0  0  0  0  0  0
  1  2  1  0  0  0  0
  2  3  2  0  0  0  0
  2  4  1  0  0  0  0
  3  5  1  0  0  0  0
  3 15  1  0  0  0  0
  4  6  2  0  0  0  0
  4 16  1  0  0  0  0
  5  7  1  0  0  0  0
  5  8  2  0  0  0  0
  6  9  1  0  0  0  0
  6  8  1  0  0  0  0
  8 10  1  0  0  0  0
  9 11  1  0  0  0  0
  9 17  1  0  0  0  0
 10 12  1  0  0  0  0
 10 18  1  0  0  0  0
 11 13  2  0  0  0  0
 11 12  1  0  0  0  0
 12 14  2  0  0  0  0
M  CHG  1   5   1
M  CHG  1   7  -1
M  END
>  <Column 1>
O=c1[nH]c2cc(Cl)c[n+]([O-])c2[nH]c1=O ZINC000000006450

>  <Total Molweight>
213.58

>  <cLogP>
-1.1136

>  <cLogS>
-4.696

>  <H-Acceptors>
5

>  <H-Donors>
2

>  <Total Surface Area>
135.65

>  <MMFF94 Energy>
52.58

> <Gold.Version>
5.8.1

> <Gold.Id.Protein>
ID|2FQT|mol2

> <Gold.PLP.Fitness>
37.1069

> <Gold.PLP.PLP>
-26.3312

> <Gold.PLP.part.hbond>
-5.1375

> <Gold.PLP.part.metal>
0.0000

> <Gold.PLP.part.buried>
-3.2821

> <Gold.PLP.part.nonpolar>
-18.4400

> <Gold.PLP.part.repulsive>
1.5751

> <Gold.PLP.ligand.clash>
0.0000

> <Gold.PLP.ligand.torsion>
0.0000

> <Gold.PLP.Chemscore.Hbond>
3.5919

> <Gold.PLP.Chemscore.CHOScore>
0.0000

> <Gold.PLP.Chemscore.Metal>
0.0000

> <Gold.Chemscore.Hbonds>
donor molecule, donor type, donor heavy atom, donor atom, acceptor molecule, acceptor atom, score
      L1  H     9    17       P1   611  0.83
      P1  H  1244  3476       L1    14  0.08
      P1  H  1223  2649       L1     7  1.00
      P1  H  1912  4380       L1    14  0.82
      P1  H  1239  3336       L1     7  0.86

> <Gold.PLP.Chemscore.Internal.Correction>
0.0000

> <Gold.Protein.RotatedTorsions>
[ 3412  950  949  948 ] final    1.89 input   60.00 | X-H torsion
[ 3476 1244 1243 1240 ] final  169.73 input   60.00 | X-H torsion
[ 2649 1223 1224 1225 ] final  -25.34 input   60.00 | X-H torsion
[ 4380 1912 1911 1909 ] final    4.30 input   60.00 | X-H torsion
[ 3084  621  620  617 ] final  145.00 input   60.00 | X-H torsion

> <Gold.Protein.ActiveResidues>
 HIS54   GLU57   HIS58   ALA61   PHE62   ILE64   ARG65   ASP75   ILE76   ILE77  
 ASP78   ILE79   SER80   PRO81   ILE118  PRO119  ALA120  ALA121  ASN122  LYS124 
 GLN125  CYS126  GLY127  CO701   VAL4    GLU5    SER6    PHE7    GLU8    LEU9   
 HIS11   ARG20   HIS21   CYS22   GLY23   VAL24   HIS25   LYS35   ARG39   MET82  
 GLY83   CYS84   TYR89  

> <Gold.Protein.RotatedAtoms>
  -20.7334   37.3409  -17.4259 H   0  0  0  0  0  0  0  0  0  0  0  0  # atno 2649 bound_to 1223
  -20.3454   38.8583  -16.8834 H   0  0  0  0  0  0  0  0  0  0  0  0  # atno 2650 bound_to 1223
  -18.0088   27.6822  -13.4510 H   0  0  0  0  0  0  0  0  0  0  0  0  # atno 3084 bound_to 621 
  -28.7622   38.1410  -27.9984 H   0  0  0  0  0  0  0  0  0  0  0  0  # atno 3412 bound_to 950 
  -27.6187   37.8893  -29.1716 H   0  0  0  0  0  0  0  0  0  0  0  0  # atno 3413 bound_to 950 
  -28.4497   39.3224  -29.1181 H   0  0  0  0  0  0  0  0  0  0  0  0  # atno 3414 bound_to 950 
  -23.4914   31.5559  -19.7582 H   0  0  0  0  0  0  0  0  0  0  0  0  # atno 3476 bound_to 1244
  -21.1966   31.0386  -19.1183 H   0  0  0  0  0  0  0  0  0  0  0  0  # atno 4380 bound_to 1912
  -23.0973   31.9012  -21.2988 LP  0  0  0  0  0  0  0  0  0  0  0  0  # atno 4866 bound_to 1244
  -24.4057   32.5965  -20.6121 LP  0  0  0  0  0  0  0  0  0  0  0  0  # atno 4867 bound_to 1244
  -21.5311   37.9912  -16.1423 LP  0  0  0  0  0  0  0  0  0  0  0  0  # atno 4874 bound_to 1223
  -20.3604   30.8795  -20.5051 LP  0  0  0  0  0  0  0  0  0  0  0  0  # atno 4875 bound_to 1912
  -19.8731   31.9504  -19.3727 LP  0  0  0  0  0  0  0  0  0  0  0  0  # atno 4876 bound_to 1912
  -19.0346   28.8519  -12.9739 LP  0  0  0  0  0  0  0  0  0  0  0  0  # atno 4881 bound_to 621 
  -19.5445   27.6790  -13.9893 LP  0  0  0  0  0  0  0  0  0  0  0  0  # atno 4882 bound_to 621 

$$$$
Compound 61|Decoys_protonated|sdf|61|dock1
  -GOLD-   6122416173D 1   1.00000     0.00000

 22 24  0  0  0  0  0  0  0  0  3 V2000
  -26.5048   28.7998  -17.8028 O   0  0  0  0  0  0  0  0  0  0  0  0
  -26.1709   29.9112  -18.2353 N   0  3  0  0  0  0  0  0  0  0  0  0
  -26.7675   30.5312  -19.1261 O   0  5  0  0  0  0  0  0  0  0  0  0
  -24.9796   30.5395  -17.6479 C   0  0  0  0  0  0  0  0  0  0  0  0
  -24.9215   31.9372  -17.5332 C   0  0  0  0  0  0  0  0  0  0  0  0
  -23.9153   29.7325  -17.2089 C   0  0  0  0  0  0  0  0  0  0  0  0
  -23.7868   32.5212  -16.9746 C   0  0  0  0  0  0  0  0  0  0  0  0
  -22.7776   30.3205  -16.6485 C   0  0  0  0  0  0  0  0  0  0  0  0
  -23.7151   33.9212  -16.8535 N   0  0  0  0  0  0  0  0  0  0  0  0
  -22.7227   31.7111  -16.5360 C   0  0  0  0  0  0  0  0  0  0  0  0
  -22.6312   34.5972  -16.3124 C   0  0  0  0  0  0  0  0  0  0  0  0
  -21.6180   32.3799  -15.9857 N   0  0  0  0  0  0  0  0  0  0  0  0
  -22.6542   35.8234  -16.2459 O   0  0  0  0  0  0  0  0  0  0  0  0
  -21.5611   33.7429  -15.8738 C   0  0  0  0  0  0  0  0  0  0  0  0
  -20.4420   31.9196  -15.4737 C   0  0  0  0  0  0  0  0  0  0  0  0
  -20.4169   34.0929  -15.3254 N   0  0  0  0  0  0  0  0  0  0  0  0
  -19.7088   32.9355  -15.0724 N   0  0  0  0  0  0  0  0  0  0  0  0
  -25.7471   32.5585  -17.8740 H   0  0  0  0  0  0  0  0  0  0  0  0
  -23.9602   28.6473  -17.2979 H   0  0  0  0  0  0  0  0  0  0  0  0
  -21.9668   29.6772  -16.3161 H   0  0  0  0  0  0  0  0  0  0  0  0
  -24.4755   34.5139  -17.1661 H   0  0  0  0  0  0  0  0  0  0  0  0
  -20.1612   30.8790  -15.4099 H   0  0  0  0  0  0  0  0  0  0  0  0
  1  2  2  0  0  0  0
  2  3  1  0  0  0  0
  2  4  1  0  0  0  0
  4  5  2  0  0  0  0
  4  6  1  0  0  0  0
  5  7  1  0  0  0  0
  5 18  1  0  0  0  0
  6  8  2  0  0  0  0
  6 19  1  0  0  0  0
  7  9  1  0  0  0  0
  7 10  2  0  0  0  0
  8 10  1  0  0  0  0
  8 20  1  0  0  0  0
  9 11  1  0  0  0  0
  9 21  1  0  0  0  0
 10 12  1  0  0  0  0
 11 13  2  0  0  0  0
 11 14  1  0  0  0  0
 12 15  1  0  0  0  0
 12 14  1  0  0  0  0
 14 16  2  0  0  0  0
 15 17  2  0  0  0  0
 15 22  1  0  0  0  0
 16 17  1  0  0  0  0
M  CHG  1   2   1
M  CHG  1   3  -1
M  END
>  <Column 1>
O=c1[nH]c2cc([N+](=O)[O-])ccc2n2cnnc12 ZINC000000007118

>  <Total Molweight>
231.171

>  <cLogP>
-1.0198

>  <cLogS>
-4.025

>  <H-Acceptors>
7

>  <H-Donors>
1

>  <Total Surface Area>
159.12

>  <MMFF94 Energy>
41.711

> <Gold.Version>
5.8.1

> <Gold.Id.Protein>
ID|2FQT|mol2

> <Gold.PLP.Fitness>
47.9253

> <Gold.PLP.PLP>
-33.8187

> <Gold.PLP.part.hbond>
-1.0000

> <Gold.PLP.part.metal>
-2.0000

> <Gold.PLP.part.buried>
-0.6063

> <Gold.PLP.part.nonpolar>
-32.0549

> <Gold.PLP.part.repulsive>
0.5184

> <Gold.PLP.ligand.clash>
0.0000

> <Gold.PLP.ligand.torsion>
0.4426

> <Gold.PLP.Chemscore.Hbond>
1.0000

> <Gold.PLP.Chemscore.CHOScore>
0.0000

> <Gold.PLP.Chemscore.Metal>
1.9986

> <Gold.Chemscore.Hbonds>
donor molecule, donor type, donor heavy atom, donor atom, acceptor molecule, acceptor atom, score
      P1  H  1223  2649       L1    13  1.00
      P1  M  1222  1222       L1     1  1.00
      P1  M  1222  1222       L1     3  1.00

> <Gold.PLP.Chemscore.Internal.Correction>
0.0000

> <Gold.Protein.RotatedTorsions>
[ 3412  950  949  948 ] final  104.07 input   60.00 | X-H torsion
[ 3476 1244 1243 1240 ] final  -10.00 input   60.00 | X-H torsion
[ 2649 1223 1224 1225 ] final -106.41 input   60.00 | X-H torsion
[ 4380 1912 1911 1909 ] final   22.97 input   60.00 | X-H torsion
[ 3084  621  620  617 ] final -169.25 input   60.00 | X-H torsion

> <Gold.Protein.ActiveResidues>
 HIS54   GLU57   HIS58   ALA61   PHE62   ILE64   ARG65   ASP75   ILE76   ILE77  
 ASP78   ILE79   SER80   PRO81   ILE118  PRO119  ALA120  ALA121  ASN122  LYS124 
 GLN125  CYS126  GLY127  CO701   VAL4    GLU5    SER6    PHE7    GLU8    LEU9   
 HIS11   ARG20   HIS21   CYS22   GLY23   VAL24   HIS25   LYS35   ARG39   MET82  
 GLY83   CYS84   TYR89  

> <Gold.Protein.RotatedAtoms>
  -21.5304   37.4540  -16.4778 H   0  0  0  0  0  0  0  0  0  0  0  0  # atno 2649 bound_to 1223
  -20.3317   37.8169  -17.5634 H   0  0  0  0  0  0  0  0  0  0  0  0  # atno 2650 bound_to 1223
  -18.4756   27.3176  -13.8738 H   0  0  0  0  0  0  0  0  0  0  0  0  # atno 3084 bound_to 621 
  -27.7055   37.7075  -28.9540 H   0  0  0  0  0  0  0  0  0  0  0  0  # atno 3412 bound_to 950 
  -28.2393   39.2362  -29.3084 H   0  0  0  0  0  0  0  0  0  0  0  0  # atno 3413 bound_to 950 
  -28.8857   38.4091  -28.0257 H   0  0  0  0  0  0  0  0  0  0  0  0  # atno 3414 bound_to 950 
  -23.8321   32.4782  -21.3516 H   0  0  0  0  0  0  0  0  0  0  0  0  # atno 3476 bound_to 1244
  -21.0694   31.2481  -18.9392 H   0  0  0  0  0  0  0  0  0  0  0  0  # atno 4380 bound_to 1912
  -24.2348   32.1340  -19.8130 LP  0  0  0  0  0  0  0  0  0  0  0  0  # atno 4866 bound_to 1244
  -22.9251   31.4350  -20.4931 LP  0  0  0  0  0  0  0  0  0  0  0  0  # atno 4867 bound_to 1244
  -20.7594   38.9056  -16.4064 LP  0  0  0  0  0  0  0  0  0  0  0  0  # atno 4874 bound_to 1223
  -20.6123   30.7326  -20.4134 LP  0  0  0  0  0  0  0  0  0  0  0  0  # atno 4875 bound_to 1912
  -19.7492   31.8863  -19.6448 LP  0  0  0  0  0  0  0  0  0  0  0  0  # atno 4876 bound_to 1912
  -18.3442   28.6166  -12.9024 LP  0  0  0  0  0  0  0  0  0  0  0  0  # atno 4881 bound_to 621 
  -19.7647   28.2816  -13.6350 LP  0  0  0  0  0  0  0  0  0  0  0  0  # atno 4882 bound_to 621 

$$$$
Compound 62|Decoys_protonated|sdf|62|dock5
  -GOLD-   6122416173D 1   1.00000     0.00000

 21 22  0  0  0  0  0  0  0  0  1 V2000
  -23.1067   29.6929  -17.1712 S   0  0  0  0  0  0  0  0  0  0  0  0
  -23.0681   31.3153  -16.7773 C   0  0  0  0  0  0  0  0  0  0  0  0
  -22.0792   32.1288  -17.2684 N   0  0  0  0  0  0  0  0  0  0  0  0
  -24.0767   31.9268  -15.8165 C   0  0  0  0  0  0  0  0  0  0  0  0
  -22.0688   33.4783  -16.9937 C   0  0  0  0  0  0  0  0  0  0  0  0
  -24.3984   33.3646  -16.2015 C   0  0  0  0  0  0  0  0  0  0  0  0
  -23.1784   34.0876  -16.4786 N   0  0  0  0  0  0  0  0  0  0  0  0
  -21.1277   34.4853  -17.1342 C   0  0  0  0  0  0  0  0  0  0  0  0
  -22.9107   35.4039  -16.2971 C   0  0  0  0  0  0  0  0  0  0  0  0
  -21.6844   35.6875  -16.6779 N   0  0  0  0  0  0  0  0  0  0  0  0
  -19.7635   34.4614  -17.6440 C   0  0  0  0  0  0  0  0  0  0  0  0
  -18.7193   35.7397  -17.4795 S   0  0  0  0  0  0  0  0  0  0  0  0
  -19.3934   33.3032  -18.2656 N   0  0  0  0  0  0  0  0  0  0  0  0
  -21.3510   31.7344  -17.8622 H   0  0  0  0  0  0  0  0  0  0  0  0
  -23.6266   31.9025  -14.8150 H   0  0  0  0  0  0  0  0  0  0  0  0
  -24.9991   31.3372  -15.7780 H   0  0  0  0  0  0  0  0  0  0  0  0
  -25.0020   33.4040  -17.1152 H   0  0  0  0  0  0  0  0  0  0  0  0
  -24.9338   33.8760  -15.3956 H   0  0  0  0  0  0  0  0  0  0  0  0
  -23.6261   36.1090  -15.8942 H   0  0  0  0  0  0  0  0  0  0  0  0
  -18.4667   33.1874  -18.6490 H   0  0  0  0  0  0  0  0  0  0  0  0
  -20.0704   32.5490  -18.3340 H   0  0  0  0  0  0  0  0  0  0  0  0
  1  2  2  0  0  0  0
  2  3  1  0  0  0  0
  2  4  1  0  0  0  0
  3  5  1  0  0  0  0
  3 14  1  0  0  0  0
  4  6  1  0  0  0  0
  4 15  1  0  0  0  0
  4 16  1  0  0  0  0
  5  7  1  0  0  0  0
  5  8  2  0  0  0  0
  6  7  1  0  0  0  0
  6 17  1  0  0  0  0
  6 18  1  0  0  0  0
  7  9  1  0  0  0  0
  8 10  1  0  0  0  0
  8 11  1  0  0  0  0
  9 10  2  0  0  0  0
  9 19  1  0  0  0  0
 11 12  2  0  0  0  0
 11 13  1  0  0  0  0
 13 20  1  0  0  0  0
 13 21  1  0  0  0  0
M  END
>  <Column 1>
NC(=S)c1ncn2c1NC(=S)CC2 ZINC000000007604

>  <Total Molweight>
212.301

>  <cLogP>
0.2123

>  <cLogS>
-1.762

>  <H-Acceptors>
4

>  <H-Donors>
2

>  <Total Surface Area>
160.64

>  <MMFF94 Energy>
7.5438

> <Gold.Version>
5.8.1

> <Gold.Id.Protein>
ID|2FQT|mol2

> <Gold.PLP.Fitness>
40.8761

> <Gold.PLP.PLP>
-32.9147

> <Gold.PLP.part.hbond>
-2.9935

> <Gold.PLP.part.metal>
0.0000

> <Gold.PLP.part.buried>
-3.5803

> <Gold.PLP.part.nonpolar>
-27.0422

> <Gold.PLP.part.repulsive>
0.1545

> <Gold.PLP.ligand.clash>
0.0000

> <Gold.PLP.ligand.torsion>
0.0513

> <Gold.PLP.Chemscore.Hbond>
2.6880

> <Gold.PLP.Chemscore.CHOScore>
0.0000

> <Gold.PLP.Chemscore.Metal>
0.0000

> <Gold.Chemscore.Hbonds>
donor molecule, donor type, donor heavy atom, donor atom, acceptor molecule, acceptor atom, score
      L1  H     3    14       P1  1912  1.00
      L1  H    13    21       P1  1912  0.69
      P1  H  1223  2649       L1    10  1.00

> <Gold.PLP.Chemscore.Internal.Correction>
0.0000

> <Gold.Protein.RotatedTorsions>
[ 3412  950  949  948 ] final   62.99 input   60.00 | X-H torsion
[ 3476 1244 1243 1240 ] final -145.84 input   60.00 | X-H torsion
[ 2649 1223 1224 1225 ] final  -94.61 input   60.00 | X-H torsion
[ 4380 1912 1911 1909 ] final -142.63 input   60.00 | X-H torsion
[ 3084  621  620  617 ] final   23.47 input   60.00 | X-H torsion

> <Gold.Protein.ActiveResidues>
 HIS54   GLU57   HIS58   ALA61   PHE62   ILE64   ARG65   ASP75   ILE76   ILE77  
 ASP78   ILE79   SER80   PRO81   ILE118  PRO119  ALA120  ALA121  ASN122  LYS124 
 GLN125  CYS126  GLY127  CO701   VAL4    GLU5    SER6    PHE7    GLU8    LEU9   
 HIS11   ARG20   HIS21   CYS22   GLY23   VAL24   HIS25   LYS35   ARG39   MET82  
 GLY83   CYS84   TYR89  

> <Gold.Protein.RotatedAtoms>
  -21.4667   37.3371  -16.6226 H   0  0  0  0  0  0  0  0  0  0  0  0  # atno 2649 bound_to 1223
  -20.2515   37.9947  -17.5380 H   0  0  0  0  0  0  0  0  0  0  0  0  # atno 2650 bound_to 1223
  -19.0577   28.8448  -12.9839 H   0  0  0  0  0  0  0  0  0  0  0  0  # atno 3084 bound_to 621 
  -28.0914   37.5768  -28.4203 H   0  0  0  0  0  0  0  0  0  0  0  0  # atno 3412 bound_to 950 
  -27.8007   38.7766  -29.5263 H   0  0  0  0  0  0  0  0  0  0  0  0  # atno 3413 bound_to 950 
  -28.9383   38.9994  -28.3416 H   0  0  0  0  0  0  0  0  0  0  0  0  # atno 3414 bound_to 950 
  -24.0656   31.9670  -19.7101 H   0  0  0  0  0  0  0  0  0  0  0  0  # atno 3476 bound_to 1244
  -20.0272   31.1617  -20.4745 H   0  0  0  0  0  0  0  0  0  0  0  0  # atno 4380 bound_to 1912
  -22.8901   31.5115  -20.7390 LP  0  0  0  0  0  0  0  0  0  0  0  0  # atno 4866 bound_to 1244
  -24.0346   32.5722  -21.2203 LP  0  0  0  0  0  0  0  0  0  0  0  0  # atno 4867 bound_to 1244
  -20.9012   38.8457  -16.2888 LP  0  0  0  0  0  0  0  0  0  0  0  0  # atno 4874 bound_to 1223
  -20.1592   31.9203  -19.0409 LP  0  0  0  0  0  0  0  0  0  0  0  0  # atno 4875 bound_to 1912
  -21.2519   30.7857  -19.4712 LP  0  0  0  0  0  0  0  0  0  0  0  0  # atno 4876 bound_to 1912
  -19.5282   27.6610  -13.9966 LP  0  0  0  0  0  0  0  0  0  0  0  0  # atno 4881 bound_to 621 
  -17.9946   27.6991  -13.4370 LP  0  0  0  0  0  0  0  0  0  0  0  0  # atno 4882 bound_to 621 

$$$$
Compound 63|Decoys_protonated|sdf|63|dock5
  -GOLD-   6122416173D 1   1.00000     0.00000

 20 21  0  0  0  0  0  0  0  0  1 V2000
  -17.4993   34.2894  -18.0232 O   0  0  0  0  0  0  0  0  0  0  0  0
  -18.6753   34.3643  -17.6940 C   0  0  0  0  0  0  0  0  0  0  0  0
  -19.4683   33.2539  -17.5586 N   0  0  0  0  0  0  0  0  0  0  0  0
  -19.3422   35.7331  -17.4082 C   0  0  0  0  0  0  0  0  0  0  0  0
  -20.8047   33.2957  -17.1876 C   0  0  0  0  0  0  0  0  0  0  0  0
  -18.7208   36.7826  -17.5008 O   0  0  0  0  0  0  0  0  0  0  0  0
  -20.6711   35.7119  -17.0440 N   0  0  0  0  0  0  0  0  0  0  0  0
  -21.4359   32.1107  -17.1023 N   0  0  0  0  0  0  0  0  0  0  0  0
  -21.4134   34.5287  -16.9280 C   0  0  0  0  0  0  0  0  0  0  0  0
  -22.7359   32.1478  -16.7418 C   0  0  0  0  0  0  0  0  0  0  0  0
  -22.7622   34.5453  -16.5555 C   0  0  0  0  0  0  0  0  0  0  0  0
  -23.4296   33.3178  -16.4635 C   0  0  0  0  0  0  0  0  0  0  0  0
  -23.5002   35.8178  -16.2575 C   0  0  0  0  0  0  0  0  0  0  0  0
  -19.0639   32.3471  -17.7374 H   0  0  0  0  0  0  0  0  0  0  0  0
  -21.0876   36.6142  -16.8620 H   0  0  0  0  0  0  0  0  0  0  0  0
  -23.2269   31.1798  -16.6788 H   0  0  0  0  0  0  0  0  0  0  0  0
  -24.4766   33.2635  -16.1794 H   0  0  0  0  0  0  0  0  0  0  0  0
  -23.0313   36.3410  -15.4178 H   0  0  0  0  0  0  0  0  0  0  0  0
  -24.5431   35.6237  -15.9850 H   0  0  0  0  0  0  0  0  0  0  0  0
  -23.5044   36.4693  -17.1372 H   0  0  0  0  0  0  0  0  0  0  0  0
  1  2  2  0  0  0  0
  2  3  1  0  0  0  0
  2  4  1  0  0  0  0
  3  5  1  0  0  0  0
  3 14  1  0  0  0  0
  4  6  2  0  0  0  0
  4  7  1  0  0  0  0
  5  8  2  0  0  0  0
  5  9  1  0  0  0  0
  7  9  1  0  0  0  0
  7 15  1  0  0  0  0
  8 10  1  0  0  0  0
  9 11  2  0  0  0  0
 10 12  2  0  0  0  0
 10 16  1  0  0  0  0
 11 13  1  0  0  0  0
 11 12  1  0  0  0  0
 12 17  1  0  0  0  0
 13 18  1  0  0  0  0
 13 19  1  0  0  0  0
 13 20  1  0  0  0  0
M  END
>  <Column 1>
Cc1ccnc2[nH]c(=O)c(=O)[nH]c12 ZINC000000007789

>  <Total Molweight>
177.163

>  <cLogP>
-0.9002

>  <cLogS>
-1.92

>  <H-Acceptors>
5

>  <H-Donors>
2

>  <Total Surface Area>
129.2

>  <MMFF94 Energy>
40.823

> <Gold.Version>
5.8.1

> <Gold.Id.Protein>
ID|2FQT|mol2

> <Gold.PLP.Fitness>
42.7975

> <Gold.PLP.PLP>
-29.7142

> <Gold.PLP.part.hbond>
-5.7377

> <Gold.PLP.part.metal>
0.0000

> <Gold.PLP.part.buried>
-2.0841

> <Gold.PLP.part.nonpolar>
-22.2256

> <Gold.PLP.part.repulsive>
0.2910

> <Gold.PLP.ligand.clash>
0.0000

> <Gold.PLP.ligand.torsion>
0.0000

> <Gold.PLP.Chemscore.Hbond>
4.3611

> <Gold.PLP.Chemscore.CHOScore>
0.0000

> <Gold.PLP.Chemscore.Metal>
0.0000

> <Gold.Chemscore.Hbonds>
donor molecule, donor type, donor heavy atom, donor atom, acceptor molecule, acceptor atom, score
      L1  H     7    15       P1  1223  0.98
      P1  H  1223  2649       L1     6  0.39
      P1  H  1912  4380       L1     8  1.00
      P1  H  1230  2756       L1     6  1.00
      P1  H  1466  3954       L1     1  1.00

> <Gold.PLP.Chemscore.Internal.Correction>
0.0000

> <Gold.Protein.RotatedTorsions>
[ 3412  950  949  948 ] final  153.80 input   60.00 | X-H torsion
[ 3476 1244 1243 1240 ] final   27.61 input   60.00 | X-H torsion
[ 2649 1223 1224 1225 ] final   49.54 input   60.00 | X-H torsion
[ 4380 1912 1911 1909 ] final   33.12 input   60.00 | X-H torsion
[ 3084  621  620  617 ] final   54.31 input   60.00 | X-H torsion

> <Gold.Protein.ActiveResidues>
 HIS54   GLU57   HIS58   ALA61   PHE62   ILE64   ARG65   ASP75   ILE76   ILE77  
 ASP78   ILE79   SER80   PRO81   ILE118  PRO119  ALA120  ALA121  ASN122  LYS124 
 GLN125  CYS126  GLY127  CO701   VAL4    GLU5    SER6    PHE7    GLU8    LEU9   
 HIS11   ARG20   HIS21   CYS22   GLY23   VAL24   HIS25   LYS35   ARG39   MET82  
 GLY83   CYS84   TYR89  

> <Gold.Protein.RotatedAtoms>
  -20.1715   38.3593  -17.3931 H   0  0  0  0  0  0  0  0  0  0  0  0  # atno 2649 bound_to 1223
  -21.1830   38.6307  -16.1084 H   0  0  0  0  0  0  0  0  0  0  0  0  # atno 2650 bound_to 1223
  -18.5791   28.7463  -12.8882 H   0  0  0  0  0  0  0  0  0  0  0  0  # atno 3084 bound_to 621 
  -27.6227   38.3347  -29.4514 H   0  0  0  0  0  0  0  0  0  0  0  0  # atno 3412 bound_to 950 
  -28.7725   39.2676  -28.7065 H   0  0  0  0  0  0  0  0  0  0  0  0  # atno 3413 bound_to 950 
  -28.4353   37.7505  -28.1302 H   0  0  0  0  0  0  0  0  0  0  0  0  # atno 3414 bound_to 950 
  -23.3388   32.1379  -21.4238 H   0  0  0  0  0  0  0  0  0  0  0  0  # atno 3476 bound_to 1244
  -20.9730   31.3653  -18.8729 H   0  0  0  0  0  0  0  0  0  0  0  0  # atno 4380 bound_to 1912
  -24.4368   32.4776  -20.2719 LP  0  0  0  0  0  0  0  0  0  0  0  0  # atno 4866 bound_to 1244
  -23.2198   31.4340  -19.9615 LP  0  0  0  0  0  0  0  0  0  0  0  0  # atno 4867 bound_to 1244
  -21.2594   37.2120  -16.9381 LP  0  0  0  0  0  0  0  0  0  0  0  0  # atno 4874 bound_to 1223
  -20.7451   30.6766  -20.3295 LP  0  0  0  0  0  0  0  0  0  0  0  0  # atno 4875 bound_to 1912
  -19.7136   31.8244  -19.7955 LP  0  0  0  0  0  0  0  0  0  0  0  0  # atno 4876 bound_to 1912
  -19.7487   28.0601  -13.7878 LP  0  0  0  0  0  0  0  0  0  0  0  0  # atno 4881 bound_to 621 
  -18.2561   27.3992  -13.7421 LP  0  0  0  0  0  0  0  0  0  0  0  0  # atno 4882 bound_to 621 

$$$$
Compound 64|Decoys_protonated|sdf|64|dock1
  -GOLD-   6122416173D 1   1.00000     0.00000

 21 22  0  0  0  0  0  0  0  0  1 V2000
  -24.3339   28.8333  -20.8149 O   0  0  0  0  0  0  0  0  0  0  0  0
  -24.5140   29.4980  -19.8035 C   0  0  0  0  0  0  0  0  0  0  0  0
  -23.4702   30.0009  -19.0671 N   0  0  0  0  0  0  0  0  0  0  0  0
  -25.9452   29.8121  -19.2929 C   0  0  0  0  0  0  0  0  0  0  0  0
  -23.6304   30.7585  -17.9152 C   0  0  0  0  0  0  0  0  0  0  0  0
  -26.9398   29.4089  -19.8792 O   0  0  0  0  0  0  0  0  0  0  0  0
  -26.0404   30.5686  -18.1442 N   0  0  0  0  0  0  0  0  0  0  0  0
  -22.5083   31.1794  -17.3049 N   0  0  0  0  0  0  0  0  0  0  0  0
  -24.9190   31.0402  -17.4572 C   0  0  0  0  0  0  0  0  0  0  0  0
  -22.6774   31.9160  -16.1850 C   0  0  0  0  0  0  0  0  0  0  0  0
  -25.0645   31.7992  -16.3038 C   0  0  0  0  0  0  0  0  0  0  0  0
  -21.5787   32.3885  -15.4957 O   0  0  0  0  0  0  0  0  0  0  0  0
  -23.9174   32.2469  -15.6534 C   0  0  0  0  0  0  0  0  0  0  0  0
  -20.3419   32.0870  -16.1341 C   0  0  0  0  0  0  0  0  0  0  0  0
  -22.5291   29.8114  -19.3769 H   0  0  0  0  0  0  0  0  0  0  0  0
  -26.9771   30.7680  -17.8194 H   0  0  0  0  0  0  0  0  0  0  0  0
  -26.0431   32.0466  -15.9050 H   0  0  0  0  0  0  0  0  0  0  0  0
  -23.9836   32.8428  -14.7490 H   0  0  0  0  0  0  0  0  0  0  0  0
  -19.5387   32.4997  -15.5162 H   0  0  0  0  0  0  0  0  0  0  0  0
  -20.1854   31.0049  -16.2046 H   0  0  0  0  0  0  0  0  0  0  0  0
  -20.2793   32.5592  -17.1206 H   0  0  0  0  0  0  0  0  0  0  0  0
  1  2  2  0  0  0  0
  2  3  1  0  0  0  0
  2  4  1  0  0  0  0
  3  5  1  0  0  0  0
  3 15  1  0  0  0  0
  4  6  2  0  0  0  0
  4  7  1  0  0  0  0
  5  8  2  0  0  0  0
  5  9  1  0  0  0  0
  7  9  1  0  0  0  0
  7 16  1  0  0  0  0
  8 10  1  0  0  0  0
  9 11  2  0  0  0  0
 10 12  1  0  0  0  0
 10 13  2  0  0  0  0
 11 13  1  0  0  0  0
 11 17  1  0  0  0  0
 12 14  1  0  0  0  0
 13 18  1  0  0  0  0
 14 19  1  0  0  0  0
 14 20  1  0  0  0  0
 14 21  1  0  0  0  0
M  END
>  <Column 1>
COc1ccc2[nH]c(=O)c(=O)[nH]c2n1 ZINC000000007790

>  <Total Molweight>
193.162

>  <cLogP>
-0.9627

>  <cLogS>
-2.119

>  <H-Acceptors>
6

>  <H-Donors>
2

>  <Total Surface Area>
139.2

>  <MMFF94 Energy>
21.9

> <Gold.Version>
5.8.1

> <Gold.Id.Protein>
ID|2FQT|mol2

> <Gold.PLP.Fitness>
44.2680

> <Gold.PLP.PLP>
-29.2522

> <Gold.PLP.part.hbond>
-4.9320

> <Gold.PLP.part.metal>
-1.0000

> <Gold.PLP.part.buried>
0.1521

> <Gold.PLP.part.nonpolar>
-26.5478

> <Gold.PLP.part.repulsive>
3.3240

> <Gold.PLP.ligand.clash>
0.0000

> <Gold.PLP.ligand.torsion>
0.0131

> <Gold.PLP.Chemscore.Hbond>
3.0238

> <Gold.PLP.Chemscore.CHOScore>
0.0000

> <Gold.PLP.Chemscore.Metal>
0.9951

> <Gold.Chemscore.Hbonds>
donor molecule, donor type, donor heavy atom, donor atom, acceptor molecule, acceptor atom, score
      L1  H     7    16       P1   437  0.88
      P1  H   966  3428       L1     6  1.00
      P1  H  1912  4380       L1     8  0.78
      P1  H  1504  3991       L1     1  0.16
      P1  H  1503  3989       L1     1  0.20
      P1  M  1222  1222       L1     6  1.00

> <Gold.PLP.Chemscore.Internal.Correction>
0.0000

> <Gold.Protein.RotatedTorsions>
[ 3412  950  949  948 ] final   76.29 input   60.00 | X-H torsion
[ 3476 1244 1243 1240 ] final   63.25 input   60.00 | X-H torsion
[ 2649 1223 1224 1225 ] final -134.93 input   60.00 | X-H torsion
[ 4380 1912 1911 1909 ] final   14.80 input   60.00 | X-H torsion
[ 3084  621  620  617 ] final  -25.36 input   60.00 | X-H torsion

> <Gold.Protein.ActiveResidues>
 HIS54   GLU57   HIS58   ALA61   PHE62   ILE64   ARG65   ASP75   ILE76   ILE77  
 ASP78   ILE79   SER80   PRO81   ILE118  PRO119  ALA120  ALA121  ASN122  LYS124 
 GLN125  CYS126  GLY127  CO701   VAL4    GLU5    SER6    PHE7    GLU8    LEU9   
 HIS11   ARG20   HIS21   CYS22   GLY23   VAL24   HIS25   LYS35   ARG39   MET82  
 GLY83   CYS84   TYR89  

> <Gold.Protein.RotatedAtoms>
  -21.5670   37.8310  -16.1970 H   0  0  0  0  0  0  0  0  0  0  0  0  # atno 2649 bound_to 1223
  -20.6113   37.4436  -17.4945 H   0  0  0  0  0  0  0  0  0  0  0  0  # atno 2650 bound_to 1223
  -19.6523   28.5635  -13.3915 H   0  0  0  0  0  0  0  0  0  0  0  0  # atno 3084 bound_to 621 
  -27.9453   37.5707  -28.5868 H   0  0  0  0  0  0  0  0  0  0  0  0  # atno 3412 bound_to 950 
  -27.9260   38.9569  -29.4953 H   0  0  0  0  0  0  0  0  0  0  0  0  # atno 3413 bound_to 950 
  -28.9592   38.8253  -28.2060 H   0  0  0  0  0  0  0  0  0  0  0  0  # atno 3414 bound_to 950 
  -22.9931   31.7668  -21.1572 H   0  0  0  0  0  0  0  0  0  0  0  0  # atno 3476 bound_to 1244
  -21.1337   31.1546  -19.0091 H   0  0  0  0  0  0  0  0  0  0  0  0  # atno 4380 bound_to 1912
  -24.3319   32.6277  -20.8192 LP  0  0  0  0  0  0  0  0  0  0  0  0  # atno 4866 bound_to 1244
  -23.6729   31.6576  -19.6828 LP  0  0  0  0  0  0  0  0  0  0  0  0  # atno 4867 bound_to 1244
  -20.4478   38.9021  -16.7509 LP  0  0  0  0  0  0  0  0  0  0  0  0  # atno 4874 bound_to 1223
  -20.5023   30.7905  -20.4640 LP  0  0  0  0  0  0  0  0  0  0  0  0  # atno 4875 bound_to 1912
  -19.7946   31.9226  -19.5238 LP  0  0  0  0  0  0  0  0  0  0  0  0  # atno 4876 bound_to 1912
  -18.8378   27.3001  -14.0149 LP  0  0  0  0  0  0  0  0  0  0  0  0  # atno 4881 bound_to 621 
  -18.0862   28.3433  -13.0082 LP  0  0  0  0  0  0  0  0  0  0  0  0  # atno 4882 bound_to 621 

$$$$
Compound 65|Decoys_protonated|sdf|65|dock5
  -GOLD-   6122416173D 1   1.00000     0.00000

 23 23  0  0  0  0  0  0  0  0  1 V2000
  -21.2694   35.3996  -17.7165 O   0  0  0  0  0  0  0  0  0  0  0  0
  -21.2604   34.4439  -16.9320 C   0  0  0  0  0  0  0  0  0  0  0  0
  -22.4596   33.9148  -16.5615 N   0  0  0  0  0  0  0  0  0  0  0  0
  -19.9414   33.9132  -16.3317 C   0  0  2  0  0  0  0  0  0  0  0  0
  -22.7600   32.6979  -15.8309 C   0  0  0  0  0  0  0  0  0  0  0  0
  -18.8595   34.5001  -17.1210 N   0  0  0  0  0  0  0  0  0  0  0  0
  -19.8741   32.3866  -16.3463 C   0  0  0  0  0  0  0  0  0  0  0  0
  -21.8307   32.4003  -14.6666 C   0  0  0  0  0  0  0  0  0  0  0  0
  -18.7196   34.2767  -18.4610 C   0  0  0  0  0  0  0  0  0  0  0  0
  -20.5123   31.7632  -15.1045 C   0  0  0  0  0  0  0  0  0  0  0  0
  -19.4870   33.6255  -19.1546 O   0  0  0  0  0  0  0  0  0  0  0  0
  -23.2375   34.3842  -17.0121 H   0  0  0  0  0  0  0  0  0  0  0  0
  -19.8405   34.3075  -15.3138 H   0  0  0  0  0  0  0  0  0  0  0  0
  -23.7804   32.8246  -15.4523 H   0  0  0  0  0  0  0  0  0  0  0  0
  -22.7799   31.8716  -16.5499 H   0  0  0  0  0  0  0  0  0  0  0  0
  -18.1169   34.9696  -16.6095 H   0  0  0  0  0  0  0  0  0  0  0  0
  -18.8372   32.0334  -16.3982 H   0  0  0  0  0  0  0  0  0  0  0  0
  -20.3628   31.9959  -17.2485 H   0  0  0  0  0  0  0  0  0  0  0  0
  -22.3269   31.7044  -13.9791 H   0  0  0  0  0  0  0  0  0  0  0  0
  -21.6379   33.3148  -14.0929 H   0  0  0  0  0  0  0  0  0  0  0  0
  -17.8151   34.7585  -18.8680 H   0  0  0  0  0  0  0  0  0  0  0  0
  -20.6712   30.6950  -15.2983 H   0  0  0  0  0  0  0  0  0  0  0  0
  -19.8069   31.8191  -14.2661 H   0  0  0  0  0  0  0  0  0  0  0  0
  1  2  2  0  0  0  0
  2  3  1  0  0  0  0
  2  4  1  0  0  0  0
  3  5  1  0  0  0  0
  3 12  1  0  0  0  0
  4  6  1  0  0  0  0
  4  7  1  0  0  0  0
  4 13  1  0  0  0  0
  5  8  1  0  0  0  0
  5 14  1  0  0  0  0
  5 15  1  0  0  0  0
  6  9  1  0  0  0  0
  6 16  1  0  0  0  0
  7 10  1  0  0  0  0
  7 17  1  0  0  0  0
  7 18  1  0  0  0  0
  8 10  1  0  0  0  0
  8 19  1  0  0  0  0
  8 20  1  0  0  0  0
  9 11  2  0  0  0  0
  9 21  1  0  0  0  0
 10 22  1  0  0  0  0
 10 23  1  0  0  0  0
M  END
>  <Column 1>
O=CN[C@@H]1CCCCNC1=O ZINC000000007996

>  <Total Molweight>
156.184

>  <cLogP>
-0.6922

>  <cLogS>
-1.421

>  <H-Acceptors>
4

>  <H-Donors>
2

>  <Total Surface Area>
127.75

>  <MMFF94 Energy>
-9.4915

> <Gold.Version>
5.8.1

> <Gold.Id.Protein>
ID|2FQT|mol2

> <Gold.PLP.Fitness>
36.8074

> <Gold.PLP.PLP>
-27.8075

> <Gold.PLP.part.hbond>
-4.7099

> <Gold.PLP.part.metal>
0.0000

> <Gold.PLP.part.buried>
-5.3560

> <Gold.PLP.part.nonpolar>
-18.5874

> <Gold.PLP.part.repulsive>
0.3021

> <Gold.PLP.ligand.clash>
0.0000

> <Gold.PLP.ligand.torsion>
0.0017

> <Gold.PLP.Chemscore.Hbond>
3.0000

> <Gold.PLP.Chemscore.CHOScore>
0.0000

> <Gold.PLP.Chemscore.Metal>
0.0000

> <Gold.Chemscore.Hbonds>
donor molecule, donor type, donor heavy atom, donor atom, acceptor molecule, acceptor atom, score
      P1  H  1223  2650       L1     1  1.00
      P1  H  1912  4380       L1    11  1.00
      P1  H  1239  3336       L1     1  1.00

> <Gold.PLP.Chemscore.Internal.Correction>
0.0034

> <Gold.Protein.RotatedTorsions>
[ 3412  950  949  948 ] final   28.01 input   60.00 | X-H torsion
[ 3476 1244 1243 1240 ] final  -98.51 input   60.00 | X-H torsion
[ 2649 1223 1224 1225 ] final -171.07 input   60.00 | X-H torsion
[ 4380 1912 1911 1909 ] final  115.65 input   60.00 | X-H torsion
[ 3084  621  620  617 ] final  -16.36 input   60.00 | X-H torsion

> <Gold.Protein.ActiveResidues>
 HIS54   GLU57   HIS58   ALA61   PHE62   ILE64   ARG65   ASP75   ILE76   ILE77  
 ASP78   ILE79   SER80   PRO81   ILE118  PRO119  ALA120  ALA121  ASN122  LYS124 
 GLN125  CYS126  GLY127  CO701   VAL4    GLU5    SER6    PHE7    GLU8    LEU9   
 HIS11   ARG20   HIS21   CYS22   GLY23   VAL24   HIS25   LYS35   ARG39   MET82  
 GLY83   CYS84   TYR89  

> <Gold.Protein.RotatedAtoms>
  -21.3744   38.3757  -16.0609 H   0  0  0  0  0  0  0  0  0  0  0  0  # atno 2649 bound_to 1223
  -21.0459   37.1944  -17.1761 H   0  0  0  0  0  0  0  0  0  0  0  0  # atno 2650 bound_to 1223
  -19.5752   28.6509  -13.3022 H   0  0  0  0  0  0  0  0  0  0  0  0  # atno 3084 bound_to 621 
  -28.5014   37.8084  -28.0900 H   0  0  0  0  0  0  0  0  0  0  0  0  # atno 3412 bound_to 950 
  -27.6064   38.2470  -29.4144 H   0  0  0  0  0  0  0  0  0  0  0  0  # atno 3413 bound_to 950 
  -28.7227   39.2974  -28.7836 H   0  0  0  0  0  0  0  0  0  0  0  0  # atno 3414 bound_to 950 
  -24.4185   32.4305  -20.1849 H   0  0  0  0  0  0  0  0  0  0  0  0  # atno 3476 bound_to 1244
  -19.9555   31.9503  -19.2572 H   0  0  0  0  0  0  0  0  0  0  0  0  # atno 4380 bound_to 1912
  -23.1546   31.4163  -20.0363 LP  0  0  0  0  0  0  0  0  0  0  0  0  # atno 4866 bound_to 1244
  -23.4147   32.2006  -21.4448 LP  0  0  0  0  0  0  0  0  0  0  0  0  # atno 4867 bound_to 1244
  -20.2095   38.6110  -17.1987 LP  0  0  0  0  0  0  0  0  0  0  0  0  # atno 4874 bound_to 1223
  -21.2371   30.9483  -19.2201 LP  0  0  0  0  0  0  0  0  0  0  0  0  # atno 4875 bound_to 1912
  -20.2462   30.9634  -20.5179 LP  0  0  0  0  0  0  0  0  0  0  0  0  # atno 4876 bound_to 1912
  -18.9800   27.3299  -14.0430 LP  0  0  0  0  0  0  0  0  0  0  0  0  # atno 4881 bound_to 621 
  -18.0217   28.2254  -13.0701 LP  0  0  0  0  0  0  0  0  0  0  0  0  # atno 4882 bound_to 621 

$$$$
Compound 66|Decoys_protonated|sdf|66|dock4
  -GOLD-   6122416173D 1   1.00000     0.00000

 31 32  0  0  0  0  0  0  0  0  1 V2000
  -17.1332   36.0591  -17.9079 O   0  0  0  0  0  0  0  0  0  0  0  0
  -18.0151   35.4051  -17.3608 C   0  0  0  0  0  0  0  0  0  0  0  0
  -18.3035   35.5259  -15.9020 C   0  0  0  0  0  0  0  0  0  0  0  0
  -18.8370   34.4064  -18.1119 C   0  0  0  0  0  0  0  0  0  0  0  0
  -19.2539   34.6527  -15.2579 C   0  0  0  0  0  0  0  0  0  0  0  0
  -17.6115   36.4245  -15.1854 C   0  0  0  0  0  0  0  0  0  0  0  0
  -18.3237   33.8929  -19.2436 C   0  0  0  0  0  0  0  0  0  0  0  0
  -20.1825   34.0382  -17.5590 C   0  0  1  0  0  0  0  0  0  0  0  0
  -20.0571   33.7008  -16.0741 C   0  0  0  0  0  0  0  0  0  0  0  0
  -19.4400   34.7224  -13.9330 C   0  0  0  0  0  0  0  0  0  0  0  0
  -17.8172   36.5284  -13.7161 C   0  0  0  0  0  0  0  0  0  0  0  0
  -21.0619   35.1581  -17.6756 O   0  0  0  0  0  0  0  0  0  0  0  0
  -20.6106   32.7274  -15.5644 O   0  0  0  0  0  0  0  0  0  0  0  0
  -18.7370   35.6366  -13.1633 N   0  0  0  0  0  0  0  0  0  0  0  0
  -17.1802   37.3643  -13.0829 O   0  0  0  0  0  0  0  0  0  0  0  0
  -22.4231   34.8191  -17.4171 C   0  0  0  0  0  0  0  0  0  0  0  0
  -18.9864   35.6702  -11.7296 C   0  0  0  0  0  0  0  0  0  0  0  0
  -22.9306   35.7076  -16.2989 C   0  0  0  0  0  0  0  0  0  0  0  0
  -16.8734   37.0931  -15.6134 H   0  0  0  0  0  0  0  0  0  0  0  0
  -17.3454   34.1943  -19.6127 H   0  0  0  0  0  0  0  0  0  0  0  0
  -18.8678   33.1675  -19.8403 H   0  0  0  0  0  0  0  0  0  0  0  0
  -20.5949   33.1516  -18.0587 H   0  0  0  0  0  0  0  0  0  0  0  0
  -20.1508   34.0832  -13.4135 H   0  0  0  0  0  0  0  0  0  0  0  0
  -22.4894   33.7681  -17.1150 H   0  0  0  0  0  0  0  0  0  0  0  0
  -23.0264   34.9745  -18.3179 H   0  0  0  0  0  0  0  0  0  0  0  0
  -20.0386   35.9186  -11.5576 H   0  0  0  0  0  0  0  0  0  0  0  0
  -18.7685   34.6845  -11.3063 H   0  0  0  0  0  0  0  0  0  0  0  0
  -18.3636   36.4138  -11.2251 H   0  0  0  0  0  0  0  0  0  0  0  0
  -23.9743   35.4808  -16.0631 H   0  0  0  0  0  0  0  0  0  0  0  0
  -22.3268   35.5734  -15.3954 H   0  0  0  0  0  0  0  0  0  0  0  0
  -22.8529   36.7631  -16.5801 H   0  0  0  0  0  0  0  0  0  0  0  0
  1  2  2  0  0  0  0
  2  3  1  0  0  0  0
  2  4  1  0  0  0  0
  3  5  1  0  0  0  0
  3  6  2  0  0  0  0
  4  7  2  0  0  0  0
  4  8  1  0  0  0  0
  5  9  1  0  0  0  0
  5 10  2  0  0  0  0
  6 11  1  0  0  0  0
  6 19  1  0  0  0  0
  7 20  1  0  0  0  0
  7 21  1  0  0  0  0
  8 12  1  0  0  0  0
  8  9  1  0  0  0  0
  8 22  1  0  0  0  0
  9 13  2  0  0  0  0
 10 14  1  0  0  0  0
 10 23  1  0  0  0  0
 11 15  2  0  0  0  0
 11 14  1  0  0  0  0
 12 16  1  0  0  0  0
 14 17  1  0  0  0  0
 16 18  1  0  0  0  0
 16 24  1  0  0  0  0
 16 25  1  0  0  0  0
 17 26  1  0  0  0  0
 17 27  1  0  0  0  0
 17 28  1  0  0  0  0
 18 29  1  0  0  0  0
 18 30  1  0  0  0  0
 18 31  1  0  0  0  0
M  END
>  <Column 1>
C=C1C(=O)c2cc(=O)n(C)cc2C(=O)C1OCC ZINC000000008262

>  <Total Molweight>
247.249

>  <cLogP>
-0.0321

>  <cLogS>
-1.011

>  <H-Acceptors>
5

>  <H-Donors>
0

>  <Total Surface Area>
183

>  <MMFF94 Energy>
48.467

> <Gold.Version>
5.8.1

> <Gold.Id.Protein>
ID|2FQT|mol2

> <Gold.PLP.Fitness>
49.1704

> <Gold.PLP.PLP>
-44.0547

> <Gold.PLP.part.hbond>
-2.0851

> <Gold.PLP.part.metal>
0.0000

> <Gold.PLP.part.buried>
-6.5424

> <Gold.PLP.part.nonpolar>
-35.4660

> <Gold.PLP.part.repulsive>
0.2622

> <Gold.PLP.ligand.clash>
0.0000

> <Gold.PLP.ligand.torsion>
0.4423

> <Gold.PLP.Chemscore.Hbond>
2.0000

> <Gold.PLP.Chemscore.CHOScore>
0.0000

> <Gold.PLP.Chemscore.Metal>
0.0000

> <Gold.Chemscore.Hbonds>
donor molecule, donor type, donor heavy atom, donor atom, acceptor molecule, acceptor atom, score
      P1  H  1223  2649       L1    12  1.00
      P1  H  1239  3336       L1    12  1.00

> <Gold.PLP.Chemscore.Internal.Correction>
0.0002

> <Gold.Protein.RotatedTorsions>
[ 3412  950  949  948 ] final  -62.27 input   60.00 | X-H torsion
[ 3476 1244 1243 1240 ] final  111.61 input   60.00 | X-H torsion
[ 2649 1223 1224 1225 ] final  -52.17 input   60.00 | X-H torsion
[ 4380 1912 1911 1909 ] final -160.19 input   60.00 | X-H torsion
[ 3084  621  620  617 ] final -163.11 input   60.00 | X-H torsion

> <Gold.Protein.ActiveResidues>
 HIS54   GLU57   HIS58   ALA61   PHE62   ILE64   ARG65   ASP75   ILE76   ILE77  
 ASP78   ILE79   SER80   PRO81   ILE118  PRO119  ALA120  ALA121  ASN122  LYS124 
 GLN125  CYS126  GLY127  CO701   VAL4    GLU5    SER6    PHE7    GLU8    LEU9   
 HIS11   ARG20   HIS21   CYS22   GLY23   VAL24   HIS25   LYS35   ARG39   MET82  
 GLY83   CYS84   TYR89  

> <Gold.Protein.RotatedAtoms>
  -21.0589   37.1919  -17.1634 H   0  0  0  0  0  0  0  0  0  0  0  0  # atno 2649 bound_to 1223
  -20.1926   38.6040  -17.2137 H   0  0  0  0  0  0  0  0  0  0  0  0  # atno 2650 bound_to 1223
  -18.5649   27.3013  -13.9164 H   0  0  0  0  0  0  0  0  0  0  0  0  # atno 3084 bound_to 621 
  -28.9202   39.0605  -28.4018 H   0  0  0  0  0  0  0  0  0  0  0  0  # atno 3412 bound_to 950 
  -28.1524   37.5922  -28.3591 H   0  0  0  0  0  0  0  0  0  0  0  0  # atno 3413 bound_to 950 
  -27.7580   38.7001  -29.5272 H   0  0  0  0  0  0  0  0  0  0  0  0  # atno 3414 bound_to 950 
  -22.9357   31.4355  -20.4681 H   0  0  0  0  0  0  0  0  0  0  0  0  # atno 3476 bound_to 1244
  -19.8592   31.3639  -20.3623 H   0  0  0  0  0  0  0  0  0  0  0  0  # atno 4380 bound_to 1912
  -23.8134   32.4682  -21.3687 LP  0  0  0  0  0  0  0  0  0  0  0  0  # atno 4866 bound_to 1244
  -24.2493   32.1509  -19.8273 LP  0  0  0  0  0  0  0  0  0  0  0  0  # atno 4867 bound_to 1244
  -21.3609   38.3886  -16.0755 LP  0  0  0  0  0  0  0  0  0  0  0  0  # atno 4874 bound_to 1223
  -20.3878   31.8253  -18.8940 LP  0  0  0  0  0  0  0  0  0  0  0  0  # atno 4875 bound_to 1912
  -21.1926   30.6771  -19.7311 LP  0  0  0  0  0  0  0  0  0  0  0  0  # atno 4876 bound_to 1912
  -18.2674   28.5536  -12.9207 LP  0  0  0  0  0  0  0  0  0  0  0  0  # atno 4881 bound_to 621 
  -19.7516   28.3608  -13.5738 LP  0  0  0  0  0  0  0  0  0  0  0  0  # atno 4882 bound_to 621 

$$$$
Compound 67|Decoys_protonated|sdf|67|dock6
  -GOLD-   6122416173D 1   1.00000     0.00000

 35 37  0  0  0  0  0  0  0  0  1 V2000
  -19.9712   34.3500  -17.2989 S   0  0  0  0  0  0  0  0  0  0  0  0
  -20.2324   35.5252  -18.1004 O   0  0  0  0  0  0  0  0  0  0  0  0
  -19.1466   33.2662  -17.7891 O   0  0  0  0  0  0  0  0  0  0  0  0
  -19.3101   34.8550  -15.8048 N   0  0  0  0  0  0  0  0  0  0  0  0
  -21.5479   33.6871  -16.8172 C   0  0  0  0  0  0  0  0  0  0  0  0
  -19.6271   36.2787  -15.4285 C   0  0  0  0  0  0  0  0  0  0  0  0
  -19.6725   33.9240  -14.6718 C   0  0  0  0  0  0  0  0  0  0  0  0
  -22.6509   34.5349  -16.6656 C   0  0  0  0  0  0  0  0  0  0  0  0
  -21.6594   32.3103  -16.5855 C   0  0  0  0  0  0  0  0  0  0  0  0
  -18.8283   36.6717  -14.1760 C   0  0  2  0  0  0  0  0  0  0  0  0
  -18.8814   34.2862  -13.4066 C   0  0  0  0  0  0  0  0  0  0  0  0
  -23.8806   33.9928  -16.2898 C   0  0  0  0  0  0  0  0  0  0  0  0
  -22.8927   31.7778  -16.2102 C   0  0  0  0  0  0  0  0  0  0  0  0
  -18.9756   35.7054  -13.1118 N   0  0  0  0  0  0  0  0  0  0  0  0
  -19.2957   37.9607  -13.5161 C   0  0  0  0  0  0  0  0  0  0  0  0
  -23.9907   32.6222  -16.0676 C   0  0  0  0  0  0  0  0  0  0  0  0
  -18.9650   36.2798  -11.8580 C   0  0  0  0  0  0  0  0  0  0  0  0
  -18.8946   37.7771  -12.0516 C   0  0  0  0  0  0  0  0  0  0  0  0
  -25.1739   32.1074  -15.7096 F   0  0  0  0  0  0  0  0  0  0  0  0
  -18.9668   35.6979  -10.7877 O   0  0  0  0  0  0  0  0  0  0  0  0
  -19.3633   36.9613  -16.2416 H   0  0  0  0  0  0  0  0  0  0  0  0
  -20.7039   36.3652  -15.2377 H   0  0  0  0  0  0  0  0  0  0  0  0
  -20.7484   34.0014  -14.4743 H   0  0  0  0  0  0  0  0  0  0  0  0
  -19.4387   32.8895  -14.9425 H   0  0  0  0  0  0  0  0  0  0  0  0
  -22.5608   35.6062  -16.8314 H   0  0  0  0  0  0  0  0  0  0  0  0
  -20.7933   31.6602  -16.6917 H   0  0  0  0  0  0  0  0  0  0  0  0
  -17.7574   36.7238  -14.4123 H   0  0  0  0  0  0  0  0  0  0  0  0
  -17.8175   34.0660  -13.5545 H   0  0  0  0  0  0  0  0  0  0  0  0
  -19.2260   33.7055  -12.5452 H   0  0  0  0  0  0  0  0  0  0  0  0
  -24.7525   34.6278  -16.1632 H   0  0  0  0  0  0  0  0  0  0  0  0
  -23.0054   30.7142  -16.0228 H   0  0  0  0  0  0  0  0  0  0  0  0
  -18.8489   38.8522  -13.9657 H   0  0  0  0  0  0  0  0  0  0  0  0
  -20.3864   38.0615  -13.5805 H   0  0  0  0  0  0  0  0  0  0  0  0
  -17.8664   38.1077  -11.8748 H   0  0  0  0  0  0  0  0  0  0  0  0
  -19.5792   38.2935  -11.3748 H   0  0  0  0  0  0  0  0  0  0  0  0
  1  2  2  0  0  0  0
  1  3  2  0  0  0  0
  1  4  1  0  0  0  0
  1  5  1  0  0  0  0
  4  6  1  0  0  0  0
  4  7  1  0  0  0  0
  5  8  2  0  0  0  0
  5  9  1  0  0  0  0
  6 10  1  0  0  0  0
  6 21  1  0  0  0  0
  6 22  1  0  0  0  0
  7 11  1  0  0  0  0
  7 23  1  0  0  0  0
  7 24  1  0  0  0  0
  8 12  1  0  0  0  0
  8 25  1  0  0  0  0
  9 13  2  0  0  0  0
  9 26  1  0  0  0  0
 10 14  1  0  0  0  0
 10 15  1  0  0  0  0
 10 27  1  0  0  0  0
 11 14  1  0  0  0  0
 11 28  1  0  0  0  0
 11 29  1  0  0  0  0
 12 16  2  0  0  0  0
 12 30  1  0  0  0  0
 13 16  1  0  0  0  0
 13 31  1  0  0  0  0
 14 17  1  0  0  0  0
 15 18  1  0  0  0  0
 15 32  1  0  0  0  0
 15 33  1  0  0  0  0
 16 19  1  0  0  0  0
 17 20  2  0  0  0  0
 17 18  1  0  0  0  0
 18 34  1  0  0  0  0
 18 35  1  0  0  0  0
M  END
>  <Column 1>
O=C1CC[C@@H]2CN(S(=O)(=O)c3ccc(F)cc3)CCN12 ZINC000000008705

>  <Total Molweight>
298.337

>  <cLogP>
0.8761

>  <cLogS>
-1.384

>  <H-Acceptors>
5

>  <H-Donors>
0

>  <Total Surface Area>
200.84

>  <MMFF94 Energy>
8.5009

> <Gold.Version>
5.8.1

> <Gold.Id.Protein>
ID|2FQT|mol2

> <Gold.PLP.Fitness>
57.0509

> <Gold.PLP.PLP>
-49.8284

> <Gold.PLP.part.hbond>
-4.0000

> <Gold.PLP.part.metal>
0.0000

> <Gold.PLP.part.buried>
-1.6095

> <Gold.PLP.part.nonpolar>
-45.7279

> <Gold.PLP.part.repulsive>
0.1737

> <Gold.PLP.ligand.clash>
0.0000

> <Gold.PLP.ligand.torsion>
1.9901

> <Gold.PLP.Chemscore.Hbond>
3.0000

> <Gold.PLP.Chemscore.CHOScore>
0.0000

> <Gold.PLP.Chemscore.Metal>
0.0000

> <Gold.Chemscore.Hbonds>
donor molecule, donor type, donor heavy atom, donor atom, acceptor molecule, acceptor atom, score
      P1  H  1223  2649       L1     2  1.00
      P1  H  1912  4380       L1     3  1.00
      P1  H  1239  3336       L1     2  1.00

> <Gold.PLP.Chemscore.Internal.Correction>
2.2027

> <Gold.Protein.RotatedTorsions>
[ 3412  950  949  948 ] final    6.88 input   60.00 | X-H torsion
[ 3476 1244 1243 1240 ] final -106.12 input   60.00 | X-H torsion
[ 2649 1223 1224 1225 ] final  -36.33 input   60.00 | X-H torsion
[ 4380 1912 1911 1909 ] final  103.04 input   60.00 | X-H torsion
[ 3084  621  620  617 ] final   33.65 input   60.00 | X-H torsion

> <Gold.Protein.ActiveResidues>
 HIS54   GLU57   HIS58   ALA61   PHE62   ILE64   ARG65   ASP75   ILE76   ILE77  
 ASP78   ILE79   SER80   PRO81   ILE118  PRO119  ALA120  ALA121  ASN122  LYS124 
 GLN125  CYS126  GLY127  CO701   VAL4    GLU5    SER6    PHE7    GLU8    LEU9   
 HIS11   ARG20   HIS21   CYS22   GLY23   VAL24   HIS25   LYS35   ARG39   MET82  
 GLY83   CYS84   TYR89  

> <Gold.Protein.RotatedAtoms>
  -20.8671   37.2584  -17.3316 H   0  0  0  0  0  0  0  0  0  0  0  0  # atno 2649 bound_to 1223
  -20.2666   38.7724  -17.0249 H   0  0  0  0  0  0  0  0  0  0  0  0  # atno 2650 bound_to 1223
  -18.8992   28.8365  -12.9349 H   0  0  0  0  0  0  0  0  0  0  0  0  # atno 3084 bound_to 621 
  -28.7187   38.0703  -28.0040 H   0  0  0  0  0  0  0  0  0  0  0  0  # atno 3412 bound_to 950 
  -27.6055   37.9507  -29.2262 H   0  0  0  0  0  0  0  0  0  0  0  0  # atno 3413 bound_to 950 
  -28.5064   39.3318  -29.0579 H   0  0  0  0  0  0  0  0  0  0  0  0  # atno 3414 bound_to 950 
  -24.3921   32.3674  -20.0813 H   0  0  0  0  0  0  0  0  0  0  0  0  # atno 3476 bound_to 1244
  -20.0921   31.9325  -19.1046 H   0  0  0  0  0  0  0  0  0  0  0  0  # atno 4380 bound_to 1912
  -23.0819   31.4039  -20.1373 LP  0  0  0  0  0  0  0  0  0  0  0  0  # atno 4866 bound_to 1244
  -23.5139   32.2766  -21.4482 LP  0  0  0  0  0  0  0  0  0  0  0  0  # atno 4867 bound_to 1244
  -21.4770   38.1571  -16.0958 LP  0  0  0  0  0  0  0  0  0  0  0  0  # atno 4874 bound_to 1223
  -21.2558   30.8314  -19.3899 LP  0  0  0  0  0  0  0  0  0  0  0  0  # atno 4875 bound_to 1912
  -20.0900   31.0984  -20.5018 LP  0  0  0  0  0  0  0  0  0  0  0  0  # atno 4876 bound_to 1912
  -19.6263   27.7851  -13.9419 LP  0  0  0  0  0  0  0  0  0  0  0  0  # atno 4881 bound_to 621 
  -18.0562   27.5835  -13.5410 LP  0  0  0  0  0  0  0  0  0  0  0  0  # atno 4882 bound_to 621 

$$$$
Compound 68|Decoys_protonated|sdf|68|dock3
  -GOLD-   6122416173D 1   1.00000     0.00000

 29 30  0  0  0  0  0  0  0  0  1 V2000
  -17.7606   35.7034  -17.2380 S   0  0  0  0  0  0  0  0  0  0  0  0
  -18.8011   36.6752  -17.5135 O   0  0  0  0  0  0  0  0  0  0  0  0
  -17.2972   35.4996  -15.8838 O   0  0  0  0  0  0  0  0  0  0  0  0
  -18.3632   34.2629  -17.8857 N   0  0  0  0  0  0  0  0  0  0  0  0
  -16.3889   36.0698  -18.3145 C   0  0  0  0  0  0  0  0  0  0  0  0
  -19.5102   33.7397  -17.2274 C   0  0  0  0  0  0  0  0  0  0  0  0
  -20.8395   34.4050  -17.2476 C   0  0  0  0  0  0  0  0  0  0  0  0
  -19.3504   32.6323  -16.4965 C   0  0  0  0  0  0  0  0  0  0  0  0
  -21.0090   35.5110  -17.7517 O   0  0  0  0  0  0  0  0  0  0  0  0
  -21.9479   33.6834  -16.5701 C   0  0  0  0  0  0  0  0  0  0  0  0
  -20.3555   31.9908  -15.7884 N   0  0  0  0  0  0  0  0  0  0  0  0
  -21.6782   32.4966  -15.8490 C   0  0  0  0  0  0  0  0  0  0  0  0
  -23.2428   34.2178  -16.6512 C   0  0  0  0  0  0  0  0  0  0  0  0
  -20.1043   30.7702  -15.0222 C   0  0  0  0  0  0  0  0  0  0  0  0
  -22.7692   31.8737  -15.2189 C   0  0  0  0  0  0  0  0  0  0  0  0
  -24.3002   33.5749  -16.0163 C   0  0  0  0  0  0  0  0  0  0  0  0
  -24.0632   32.4051  -15.3017 C   0  0  0  0  0  0  0  0  0  0  0  0
  -18.4131   34.3532  -18.9001 H   0  0  0  0  0  0  0  0  0  0  0  0
  -15.5950   35.3387  -18.1794 H   0  0  0  0  0  0  0  0  0  0  0  0
  -16.7443   36.0765  -19.3467 H   0  0  0  0  0  0  0  0  0  0  0  0
  -16.0174   37.0625  -18.0495 H   0  0  0  0  0  0  0  0  0  0  0  0
  -18.3882   32.1343  -16.4294 H   0  0  0  0  0  0  0  0  0  0  0  0
  -23.4245   35.1328  -17.2112 H   0  0  0  0  0  0  0  0  0  0  0  0
  -19.0413   30.5027  -15.0297 H   0  0  0  0  0  0  0  0  0  0  0  0
  -20.3890   30.9005  -13.9721 H   0  0  0  0  0  0  0  0  0  0  0  0
  -20.6509   29.9216  -15.4484 H   0  0  0  0  0  0  0  0  0  0  0  0
  -22.6461   30.9574  -14.6496 H   0  0  0  0  0  0  0  0  0  0  0  0
  -25.3049   33.9849  -16.0800 H   0  0  0  0  0  0  0  0  0  0  0  0
  -24.8879   31.8987  -14.8051 H   0  0  0  0  0  0  0  0  0  0  0  0
  1  2  2  0  0  0  0
  1  3  2  0  0  0  0
  1  4  1  0  0  0  0
  1  5  1  0  0  0  0
  4  6  1  0  0  0  0
  4 18  1  0  0  0  0
  5 19  1  0  0  0  0
  5 20  1  0  0  0  0
  5 21  1  0  0  0  0
  6  7  1  0  0  0  0
  6  8  2  0  0  0  0
  7  9  2  0  0  0  0
  7 10  1  0  0  0  0
  8 11  1  0  0  0  0
  8 22  1  0  0  0  0
 10 12  2  0  0  0  0
 10 13  1  0  0  0  0
 11 14  1  0  0  0  0
 11 12  1  0  0  0  0
 12 15  1  0  0  0  0
 13 16  2  0  0  0  0
 13 23  1  0  0  0  0
 14 24  1  0  0  0  0
 14 25  1  0  0  0  0
 14 26  1  0  0  0  0
 15 17  2  0  0  0  0
 15 27  1  0  0  0  0
 16 17  1  0  0  0  0
 16 28  1  0  0  0  0
 17 29  1  0  0  0  0
M  END
>  <Column 1>
Cn1cc(NS(C)(=O)=O)c(=O)c2ccccc21 ZINC000000008845

>  <Total Molweight>
252.293

>  <cLogP>
0.6077

>  <cLogS>
-3.353

>  <H-Acceptors>
5

>  <H-Donors>
1

>  <Total Surface Area>
177.08

>  <MMFF94 Energy>
17.122

> <Gold.Version>
5.8.1

> <Gold.Id.Protein>
ID|2FQT|mol2

> <Gold.PLP.Fitness>
56.2439

> <Gold.PLP.PLP>
-44.2325

> <Gold.PLP.part.hbond>
-6.0224

> <Gold.PLP.part.metal>
0.0000

> <Gold.PLP.part.buried>
-4.5510

> <Gold.PLP.part.nonpolar>
-35.6692

> <Gold.PLP.part.repulsive>
0.1430

> <Gold.PLP.ligand.clash>
0.0000

> <Gold.PLP.ligand.torsion>
0.1152

> <Gold.PLP.Chemscore.Hbond>
3.1907

> <Gold.PLP.Chemscore.CHOScore>
0.8674

> <Gold.PLP.Chemscore.Metal>
0.0000

> <Gold.Chemscore.Hbonds>
donor molecule, donor type, donor heavy atom, donor atom, acceptor molecule, acceptor atom, score
      P1  H  1223  2649       L1     9  0.99
      P1  H  1223  2650       L1     2  0.23
      P1  H  1230  2756       L1     2  0.95
      P1  H  1239  3336       L1     9  1.00
      P1  H  1466  3954       L1     3  0.01
      L1  C     8    22       P1   606  0.87

> <Gold.PLP.Chemscore.Internal.Correction>
0.0675

> <Gold.Protein.RotatedTorsions>
[ 3412  950  949  948 ] final  104.65 input   60.00 | X-H torsion
[ 3476 1244 1243 1240 ] final  164.54 input   60.00 | X-H torsion
[ 2649 1223 1224 1225 ] final  -67.44 input   60.00 | X-H torsion
[ 4380 1912 1911 1909 ] final  -62.55 input   60.00 | X-H torsion
[ 3084  621  620  617 ] final -131.93 input   60.00 | X-H torsion

> <Gold.Protein.ActiveResidues>
 HIS54   GLU57   HIS58   ALA61   PHE62   ILE64   ARG65   ASP75   ILE76   ILE77  
 ASP78   ILE79   SER80   PRO81   ILE118  PRO119  ALA120  ALA121  ASN122  LYS124 
 GLN125  CYS126  GLY127  CO701   VAL4    GLU5    SER6    PHE7    GLU8    LEU9   
 HIS11   ARG20   HIS21   CYS22   GLY23   VAL24   HIS25   LYS35   ARG39   MET82  
 GLY83   CYS84   TYR89  

> <Gold.Protein.RotatedAtoms>
  -21.2305   37.1903  -16.9758 H   0  0  0  0  0  0  0  0  0  0  0  0  # atno 2649 bound_to 1223
  -20.1701   38.4024  -17.3671 H   0  0  0  0  0  0  0  0  0  0  0  0  # atno 2650 bound_to 1223
  -19.0484   27.3551  -14.0458 H   0  0  0  0  0  0  0  0  0  0  0  0  # atno 3084 bound_to 621 
  -27.7017   37.7124  -28.9615 H   0  0  0  0  0  0  0  0  0  0  0  0  # atno 3412 bound_to 950 
  -28.2462   39.2402  -29.3029 H   0  0  0  0  0  0  0  0  0  0  0  0  # atno 3413 bound_to 950 
  -28.8826   38.4002  -28.0237 H   0  0  0  0  0  0  0  0  0  0  0  0  # atno 3414 bound_to 950 
  -23.4242   31.5218  -19.7971 H   0  0  0  0  0  0  0  0  0  0  0  0  # atno 3476 bound_to 1244
  -21.0170   30.6253  -20.0461 H   0  0  0  0  0  0  0  0  0  0  0  0  # atno 4380 bound_to 1912
  -23.1474   31.9563  -21.3406 LP  0  0  0  0  0  0  0  0  0  0  0  0  # atno 4866 bound_to 1244
  -24.4232   32.5758  -20.5312 LP  0  0  0  0  0  0  0  0  0  0  0  0  # atno 4867 bound_to 1244
  -21.2140   38.5887  -16.1092 LP  0  0  0  0  0  0  0  0  0  0  0  0  # atno 4874 bound_to 1223
  -19.7262   31.6125  -20.1315 LP  0  0  0  0  0  0  0  0  0  0  0  0  # atno 4875 bound_to 1912
  -20.6881   31.6337  -18.8120 LP  0  0  0  0  0  0  0  0  0  0  0  0  # atno 4876 bound_to 1912
  -17.9975   28.1659  -13.1043 LP  0  0  0  0  0  0  0  0  0  0  0  0  # atno 4881 bound_to 621 
  -19.5347   28.6945  -13.2599 LP  0  0  0  0  0  0  0  0  0  0  0  0  # atno 4882 bound_to 621 

$$$$
Compound 69|Decoys_protonated|sdf|69|dock1
  -GOLD-   6122416173D 1   1.00000     0.00000

 17 18  0  0  0  0  0  0  0  0  1 V2000
  -26.4632   29.4738  -18.7468 S   0  0  0  0  0  0  0  0  0  0  0  0
  -27.0514   28.5912  -17.7675 O   0  0  0  0  0  0  0  0  0  0  0  0
  -26.8854   29.5005  -20.1224 O   0  0  0  0  0  0  0  0  0  0  0  0
  -26.4840   31.0492  -18.1012 N   0  0  0  0  0  0  0  0  0  0  0  0
  -24.7729   29.2884  -18.6606 N   0  0  0  0  0  0  0  0  0  0  0  0
  -25.3012   31.1474  -17.3103 C   0  0  0  0  0  0  0  0  0  0  0  0
  -24.3503   30.1688  -17.6211 C   0  0  0  0  0  0  0  0  0  0  0  0
  -25.0261   32.1585  -16.4105 C   0  0  0  0  0  0  0  0  0  0  0  0
  -23.0968   30.1730  -17.0412 C   0  0  0  0  0  0  0  0  0  0  0  0
  -23.7731   32.1551  -15.7901 C   0  0  0  0  0  0  0  0  0  0  0  0
  -22.8170   31.1709  -16.1027 C   0  0  0  0  0  0  0  0  0  0  0  0
  -27.3654   31.2623  -17.6405 H   0  0  0  0  0  0  0  0  0  0  0  0
  -24.4989   28.3123  -18.5775 H   0  0  0  0  0  0  0  0  0  0  0  0
  -25.7483   32.9384  -16.1973 H   0  0  0  0  0  0  0  0  0  0  0  0
  -22.3466   29.4378  -17.3092 H   0  0  0  0  0  0  0  0  0  0  0  0
  -23.5251   32.9340  -15.0717 H   0  0  0  0  0  0  0  0  0  0  0  0
  -21.8409   31.2005  -15.6223 H   0  0  0  0  0  0  0  0  0  0  0  0
  1  2  2  0  0  0  0
  1  3  2  0  0  0  0
  1  4  1  0  0  0  0
  1  5  1  0  0  0  0
  4  6  1  0  0  0  0
  4 12  1  0  0  0  0
  5  7  1  0  0  0  0
  5 13  1  0  0  0  0
  6  8  1  0  0  0  0
  6  7  2  0  0  0  0
  7  9  1  0  0  0  0
  8 10  2  0  0  0  0
  8 14  1  0  0  0  0
  9 11  2  0  0  0  0
  9 15  1  0  0  0  0
 10 11  1  0  0  0  0
 10 16  1  0  0  0  0
 11 17  1  0  0  0  0
M  END
>  <Column 1>
O=S1(=O)Nc2ccccc2N1 ZINC000000009186

>  <Total Molweight>
170.192

>  <cLogP>
1.4606

>  <cLogS>
-2.844

>  <H-Acceptors>
4

>  <H-Donors>
2

>  <Total Surface Area>
111.26

>  <MMFF94 Energy>
-106.43

> <Gold.Version>
5.8.1

> <Gold.Id.Protein>
ID|2FQT|mol2

> <Gold.PLP.Fitness>
49.3912

> <Gold.PLP.PLP>
-26.7696

> <Gold.PLP.part.hbond>
-1.6223

> <Gold.PLP.part.metal>
-2.3990

> <Gold.PLP.part.buried>
3.4471

> <Gold.PLP.part.nonpolar>
-26.3328

> <Gold.PLP.part.repulsive>
0.2359

> <Gold.PLP.ligand.clash>
0.0000

> <Gold.PLP.ligand.torsion>
0.0000

> <Gold.PLP.Chemscore.Hbond>
2.0000

> <Gold.PLP.Chemscore.CHOScore>
0.0000

> <Gold.PLP.Chemscore.Metal>
2.7703

> <Gold.Chemscore.Hbonds>
donor molecule, donor type, donor heavy atom, donor atom, acceptor molecule, acceptor atom, score
      L1  H     4    12       P1   437  1.00
      P1  H   966  3428       L1     3  1.00
      P1  M  1222  1222       L1     2  1.00
      P1  M  1222  1222       L1     3  0.77
      P1  M  1222  1222       L1     4  1.00

> <Gold.PLP.Chemscore.Internal.Correction>
0.0000

> <Gold.Protein.RotatedTorsions>
[ 3412  950  949  948 ] final   -5.21 input   60.00 | X-H torsion
[ 3476 1244 1243 1240 ] final   98.74 input   60.00 | X-H torsion
[ 2649 1223 1224 1225 ] final -166.55 input   60.00 | X-H torsion
[ 4380 1912 1911 1909 ] final  131.43 input   60.00 | X-H torsion
[ 3084  621  620  617 ] final -135.33 input   60.00 | X-H torsion

> <Gold.Protein.ActiveResidues>
 HIS54   GLU57   HIS58   ALA61   PHE62   ILE64   ARG65   ASP75   ILE76   ILE77  
 ASP78   ILE79   SER80   PRO81   ILE118  PRO119  ALA120  ALA121  ASN122  LYS124 
 GLN125  CYS126  GLY127  CO701   VAL4    GLU5    SER6    PHE7    GLU8    LEU9   
 HIS11   ARG20   HIS21   CYS22   GLY23   VAL24   HIS25   LYS35   ARG39   MET82  
 GLY83   CYS84   TYR89  

> <Gold.Protein.RotatedAtoms>
  -21.4114   38.3100  -16.0621 H   0  0  0  0  0  0  0  0  0  0  0  0  # atno 2649 bound_to 1223
  -20.9918   37.2080  -17.2268 H   0  0  0  0  0  0  0  0  0  0  0  0  # atno 2650 bound_to 1223
  -18.9958   27.3383  -14.0395 H   0  0  0  0  0  0  0  0  0  0  0  0  # atno 3084 bound_to 621 
  -28.8178   38.2456  -28.0005 H   0  0  0  0  0  0  0  0  0  0  0  0  # atno 3412 bound_to 950 
  -27.6460   37.8093  -29.0886 H   0  0  0  0  0  0  0  0  0  0  0  0  # atno 3413 bound_to 950 
  -28.3668   39.2978  -29.1990 H   0  0  0  0  0  0  0  0  0  0  0  0  # atno 3414 bound_to 950 
  -22.8983   31.4906  -20.6669 H   0  0  0  0  0  0  0  0  0  0  0  0  # atno 3476 bound_to 1244
  -19.8207   31.9277  -19.4748 H   0  0  0  0  0  0  0  0  0  0  0  0  # atno 4380 bound_to 1912
  -23.9790   32.5495  -21.2659 LP  0  0  0  0  0  0  0  0  0  0  0  0  # atno 4866 bound_to 1244
  -24.1213   32.0140  -19.7298 LP  0  0  0  0  0  0  0  0  0  0  0  0  # atno 4867 bound_to 1244
  -20.2263   38.6622  -17.1476 LP  0  0  0  0  0  0  0  0  0  0  0  0  # atno 4874 bound_to 1223
  -21.1626   31.1171  -19.0386 LP  0  0  0  0  0  0  0  0  0  0  0  0  # atno 4875 bound_to 1912
  -20.4565   30.8174  -20.4802 LP  0  0  0  0  0  0  0  0  0  0  0  0  # atno 4876 bound_to 1912
  -18.0156   28.2117  -13.0778 LP  0  0  0  0  0  0  0  0  0  0  0  0  # atno 4881 bound_to 621 
  -19.5695   28.6655  -13.2928 LP  0  0  0  0  0  0  0  0  0  0  0  0  # atno 4882 bound_to 621 

$$$$
Compound 70|Decoys_protonated|sdf|70|dock2
  -GOLD-   6122416173D 1   1.00000     0.00000

 24 26  0  0  0  0  0  0  0  0  1 V2000
  -23.7076   32.6614  -15.1931 N   0  0  0  0  0  0  0  0  0  0  0  0
  -22.8769   32.1046  -16.1023 C   0  0  0  0  0  0  0  0  0  0  0  0
  -25.0160   32.4535  -15.3719 C   0  0  0  0  0  0  0  0  0  0  0  0
  -21.4821   32.3209  -15.9196 N   0  0  0  0  0  0  0  0  0  0  0  0
  -23.3363   31.3539  -17.1713 C   0  0  0  0  0  0  0  0  0  0  0  0
  -25.5621   31.7472  -16.3664 N   0  0  0  0  0  0  0  0  0  0  0  0
  -20.6034   32.7041  -16.9092 C   0  0  0  0  0  0  0  0  0  0  0  0
  -20.7271   32.2037  -14.7728 C   0  0  0  0  0  0  0  0  0  0  0  0
  -24.7092   31.2007  -17.2624 C   0  0  0  0  0  0  0  0  0  0  0  0
  -19.3717   32.8321  -16.4661 N   0  0  0  0  0  0  0  0  0  0  0  0
  -19.4391   32.5228  -15.1378 C   0  0  0  0  0  0  0  0  0  0  0  0
  -25.2864   30.4470  -18.3242 N   0  0  0  0  0  0  0  0  0  0  0  0
  -26.5287   30.5809  -18.9012 C   0  0  0  0  0  0  0  0  0  0  0  0
  -24.6772   29.4047  -18.9917 C   0  0  0  0  0  0  0  0  0  0  0  0
  -26.7326   29.7093  -19.8654 N   0  0  0  0  0  0  0  0  0  0  0  0
  -25.5832   28.9717  -19.9288 C   0  0  0  0  0  0  0  0  0  0  0  0
  -25.6925   32.8958  -14.6480 H   0  0  0  0  0  0  0  0  0  0  0  0
  -22.6608   30.9156  -17.8890 H   0  0  0  0  0  0  0  0  0  0  0  0
  -20.9226   32.8735  -17.9299 H   0  0  0  0  0  0  0  0  0  0  0  0
  -21.1312   31.9151  -13.8153 H   0  0  0  0  0  0  0  0  0  0  0  0
  -18.5569   32.5451  -14.5103 H   0  0  0  0  0  0  0  0  0  0  0  0
  -27.2550   31.3200  -18.5956 H   0  0  0  0  0  0  0  0  0  0  0  0
  -23.6779   29.0737  -18.7448 H   0  0  0  0  0  0  0  0  0  0  0  0
  -25.4663   28.1676  -20.6445 H   0  0  0  0  0  0  0  0  0  0  0  0
  1  2  2  0  0  0  0
  1  3  1  0  0  0  0
  2  4  1  0  0  0  0
  2  5  1  0  0  0  0
  3  6  2  0  0  0  0
  3 17  1  0  0  0  0
  4  7  1  0  0  0  0
  4  8  1  0  0  0  0
  5  9  2  0  0  0  0
  5 18  1  0  0  0  0
  6  9  1  0  0  0  0
  7 10  2  0  0  0  0
  7 19  1  0  0  0  0
  8 11  2  0  0  0  0
  8 20  1  0  0  0  0
  9 12  1  0  0  0  0
 10 11  1  0  0  0  0
 11 21  1  0  0  0  0
 12 13  1  0  0  0  0
 12 14  1  0  0  0  0
 13 15  2  0  0  0  0
 13 22  1  0  0  0  0
 14 16  2  0  0  0  0
 14 23  1  0  0  0  0
 15 16  1  0  0  0  0
 16 24  1  0  0  0  0
M  END
>  <Column 1>
c1cn(-c2cc(-n3ccnc3)ncn2)cn1 ZINC000000009769

>  <Total Molweight>
212.216

>  <cLogP>
2.2216

>  <cLogS>
-3.05

>  <H-Acceptors>
6

>  <H-Donors>
0

>  <Total Surface Area>
166.22

>  <MMFF94 Energy>
23.944

> <Gold.Version>
5.8.1

> <Gold.Id.Protein>
ID|2FQT|mol2

> <Gold.PLP.Fitness>
52.3436

> <Gold.PLP.PLP>
-35.5249

> <Gold.PLP.part.hbond>
-1.0000

> <Gold.PLP.part.metal>
-0.9600

> <Gold.PLP.part.buried>
3.6235

> <Gold.PLP.part.nonpolar>
-37.7977

> <Gold.PLP.part.repulsive>
0.3777

> <Gold.PLP.ligand.clash>
0.0000

> <Gold.PLP.ligand.torsion>
1.1207

> <Gold.PLP.Chemscore.Hbond>
1.0000

> <Gold.PLP.Chemscore.CHOScore>
3.4735

> <Gold.PLP.Chemscore.Metal>
0.9399

> <Gold.Chemscore.Hbonds>
donor molecule, donor type, donor heavy atom, donor atom, acceptor molecule, acceptor atom, score
      P1  H   966  3428       L1    15  1.00
      L1  C     7    19       P1  1912  0.69
      L1  C     8    20       P1   611  1.00
      L1  C    11    21       P1   606  0.79
      L1  C    13    22       P1   437  1.00
      P1  M  1222  1222       L1    15  0.94

> <Gold.PLP.Chemscore.Internal.Correction>
0.0000

> <Gold.Protein.RotatedTorsions>
[ 3412  950  949  948 ] final -108.95 input   60.00 | X-H torsion
[ 3476 1244 1243 1240 ] final  158.73 input   60.00 | X-H torsion
[ 2649 1223 1224 1225 ] final  -36.02 input   60.00 | X-H torsion
[ 4380 1912 1911 1909 ] final  -56.53 input   60.00 | X-H torsion
[ 3084  621  620  617 ] final  -27.77 input   60.00 | X-H torsion

> <Gold.Protein.ActiveResidues>
 HIS54   GLU57   HIS58   ALA61   PHE62   ILE64   ARG65   ASP75   ILE76   ILE77  
 ASP78   ILE79   SER80   PRO81   ILE118  PRO119  ALA120  ALA121  ASN122  LYS124 
 GLN125  CYS126  GLY127  CO701   VAL4    GLU5    SER6    PHE7    GLU8    LEU9   
 HIS11   ARG20   HIS21   CYS22   GLY23   VAL24   HIS25   LYS35   ARG39   MET82  
 GLY83   CYS84   TYR89  

> <Gold.Protein.RotatedAtoms>
  -20.8633   37.2603  -17.3346 H   0  0  0  0  0  0  0  0  0  0  0  0  # atno 2649 bound_to 1223
  -20.2685   38.7752  -17.0209 H   0  0  0  0  0  0  0  0  0  0  0  0  # atno 2650 bound_to 1223
  -19.6698   28.5378  -13.4159 H   0  0  0  0  0  0  0  0  0  0  0  0  # atno 3084 bound_to 621 
  -28.5525   39.3345  -29.0057 H   0  0  0  0  0  0  0  0  0  0  0  0  # atno 3412 bound_to 950 
  -28.6797   38.0132  -28.0131 H   0  0  0  0  0  0  0  0  0  0  0  0  # atno 3413 bound_to 950 
  -27.5983   38.0051  -29.2692 H   0  0  0  0  0  0  0  0  0  0  0  0  # atno 3414 bound_to 950 
  -23.3514   31.4883  -19.8479 H   0  0  0  0  0  0  0  0  0  0  0  0  # atno 3476 bound_to 1244
  -21.0719   30.6302  -19.9646 H   0  0  0  0  0  0  0  0  0  0  0  0  # atno 4380 bound_to 1912
  -23.2085   32.0186  -21.3797 LP  0  0  0  0  0  0  0  0  0  0  0  0  # atno 4866 bound_to 1244
  -24.4355   32.5472  -20.4408 LP  0  0  0  0  0  0  0  0  0  0  0  0  # atno 4867 bound_to 1244
  -21.4788   38.1524  -16.0967 LP  0  0  0  0  0  0  0  0  0  0  0  0  # atno 4874 bound_to 1223
  -19.7506   31.5494  -20.2039 LP  0  0  0  0  0  0  0  0  0  0  0  0  # atno 4875 bound_to 1912
  -20.6084   31.6918  -18.8217 LP  0  0  0  0  0  0  0  0  0  0  0  0  # atno 4876 bound_to 1912
  -18.7996   27.2953  -14.0051 LP  0  0  0  0  0  0  0  0  0  0  0  0  # atno 4881 bound_to 621 
  -18.1068   28.3739  -12.9935 LP  0  0  0  0  0  0  0  0  0  0  0  0  # atno 4882 bound_to 621 

$$$$
Compound 71|Decoys_protonated|sdf|71|dock2
  -GOLD-   6122416173D 1   1.00000     0.00000

 21 22  0  0  0  0  0  0  0  0  1 V2000
  -22.3225   34.6925  -16.2372 O   0  0  0  0  0  0  0  0  0  0  0  0
  -22.4958   33.3421  -16.1375 C   0  0  0  0  0  0  0  0  0  0  0  0
  -23.1312   35.3959  -17.1675 C   0  0  0  0  0  0  0  0  0  0  0  0
  -21.6765   32.7917  -15.2272 N   0  0  0  0  0  0  0  0  0  0  0  0
  -23.3975   32.5982  -16.8699 C   0  0  0  0  0  0  0  0  0  0  0  0
  -21.7698   31.4710  -15.0552 C   0  0  0  0  0  0  0  0  0  0  0  0
  -23.4161   31.2380  -16.6169 C   0  0  0  0  0  0  0  0  0  0  0  0
  -22.6044   30.6551  -15.7081 N   0  0  0  0  0  0  0  0  0  0  0  0
  -24.3120   30.3874  -17.3224 N   0  0  0  0  0  0  0  0  0  0  0  0
  -25.5945   30.7231  -17.6975 C   0  0  0  0  0  0  0  0  0  0  0  0
  -24.1163   29.0989  -17.7710 C   0  0  0  0  0  0  0  0  0  0  0  0
  -26.2031   29.7489  -18.3386 N   0  0  0  0  0  0  0  0  0  0  0  0
  -25.2906   28.7342  -18.3890 C   0  0  0  0  0  0  0  0  0  0  0  0
  -24.1924   35.3138  -16.9102 H   0  0  0  0  0  0  0  0  0  0  0  0
  -22.8581   36.4543  -17.1165 H   0  0  0  0  0  0  0  0  0  0  0  0
  -22.9453   35.0539  -18.1913 H   0  0  0  0  0  0  0  0  0  0  0  0
  -24.0485   33.0556  -17.5968 H   0  0  0  0  0  0  0  0  0  0  0  0
  -21.1098   31.0218  -14.3209 H   0  0  0  0  0  0  0  0  0  0  0  0
  -26.0250   31.6911  -17.4737 H   0  0  0  0  0  0  0  0  0  0  0  0
  -23.1991   28.5491  -17.6297 H   0  0  0  0  0  0  0  0  0  0  0  0
  -25.5246   27.7916  -18.8678 H   0  0  0  0  0  0  0  0  0  0  0  0
  1  2  1  0  0  0  0
  1  3  1  0  0  0  0
  2  4  2  0  0  0  0
  2  5  1  0  0  0  0
  3 14  1  0  0  0  0
  3 15  1  0  0  0  0
  3 16  1  0  0  0  0
  4  6  1  0  0  0  0
  5  7  2  0  0  0  0
  5 17  1  0  0  0  0
  6  8  2  0  0  0  0
  6 18  1  0  0  0  0
  7  9  1  0  0  0  0
  7  8  1  0  0  0  0
  9 10  1  0  0  0  0
  9 11  1  0  0  0  0
 10 12  2  0  0  0  0
 10 19  1  0  0  0  0
 11 13  2  0  0  0  0
 11 20  1  0  0  0  0
 12 13  1  0  0  0  0
 13 21  1  0  0  0  0
M  END
>  <Column 1>
COc1cc(-n2ccnc2)ncn1 ZINC000000009770

>  <Total Molweight>
176.179

>  <cLogP>
1.4404

>  <cLogS>
-2.374

>  <H-Acceptors>
5

>  <H-Donors>
0

>  <Total Surface Area>
140.76

>  <MMFF94 Energy>
-8.7743

> <Gold.Version>
5.8.1

> <Gold.Id.Protein>
ID|2FQT|mol2

> <Gold.PLP.Fitness>
43.8501

> <Gold.PLP.PLP>
-35.8899

> <Gold.PLP.part.hbond>
0.0000

> <Gold.PLP.part.metal>
-1.0000

> <Gold.PLP.part.buried>
-5.8662

> <Gold.PLP.part.nonpolar>
-28.7841

> <Gold.PLP.part.repulsive>
0.2919

> <Gold.PLP.ligand.clash>
0.0000

> <Gold.PLP.ligand.torsion>
0.5301

> <Gold.PLP.Chemscore.Hbond>
0.0000

> <Gold.PLP.Chemscore.CHOScore>
1.0166

> <Gold.PLP.Chemscore.Metal>
0.9951

> <Gold.Chemscore.Hbonds>
donor molecule, donor type, donor heavy atom, donor atom, acceptor molecule, acceptor atom, score
      L1  C     6    18       P1   611  0.87
      L1  C    10    19       P1   437  0.15
      P1  M  1222  1222       L1    12  1.00

> <Gold.PLP.Chemscore.Internal.Correction>
0.0000

> <Gold.Protein.RotatedTorsions>
[ 3412  950  949  948 ] final  100.11 input   60.00 | X-H torsion
[ 3476 1244 1243 1240 ] final   71.74 input   60.00 | X-H torsion
[ 2649 1223 1224 1225 ] final    0.31 input   60.00 | X-H torsion
[ 4380 1912 1911 1909 ] final   77.87 input   60.00 | X-H torsion
[ 3084  621  620  617 ] final  143.97 input   60.00 | X-H torsion

> <Gold.Protein.ActiveResidues>
 HIS54   GLU57   HIS58   ALA61   PHE62   ILE64   ARG65   ASP75   ILE76   ILE77  
 ASP78   ILE79   SER80   PRO81   ILE118  PRO119  ALA120  ALA121  ASN122  LYS124 
 GLN125  CYS126  GLY127  CO701   VAL4    GLU5    SER6    PHE7    GLU8    LEU9   
 HIS11   ARG20   HIS21   CYS22   GLY23   VAL24   HIS25   LYS35   ARG39   MET82  
 GLY83   CYS84   TYR89  

> <Gold.Protein.RotatedAtoms>
  -20.4491   37.6296  -17.5540 H   0  0  0  0  0  0  0  0  0  0  0  0  # atno 2649 bound_to 1223
  -20.5984   38.9416  -16.5523 H   0  0  0  0  0  0  0  0  0  0  0  0  # atno 2650 bound_to 1223
  -18.0037   27.6944  -13.4405 H   0  0  0  0  0  0  0  0  0  0  0  0  # atno 3084 bound_to 621 
  -27.7326   37.6764  -28.9025 H   0  0  0  0  0  0  0  0  0  0  0  0  # atno 3412 bound_to 950 
  -28.1924   39.2064  -29.3441 H   0  0  0  0  0  0  0  0  0  0  0  0  # atno 3413 bound_to 950 
  -28.9055   38.4701  -28.0415 H   0  0  0  0  0  0  0  0  0  0  0  0  # atno 3414 bound_to 950 
  -22.9446   31.6875  -21.0544 H   0  0  0  0  0  0  0  0  0  0  0  0  # atno 3476 bound_to 1244
  -20.4130   31.8062  -18.8865 H   0  0  0  0  0  0  0  0  0  0  0  0  # atno 4380 bound_to 1912
  -24.2664   32.6300  -20.9423 LP  0  0  0  0  0  0  0  0  0  0  0  0  # atno 4866 bound_to 1244
  -23.7873   31.7353  -19.6631 LP  0  0  0  0  0  0  0  0  0  0  0  0  # atno 4867 bound_to 1244
  -21.5620   37.6247  -16.3423 LP  0  0  0  0  0  0  0  0  0  0  0  0  # atno 4874 bound_to 1223
  -21.1818   30.6685  -19.7598 LP  0  0  0  0  0  0  0  0  0  0  0  0  # atno 4875 bound_to 1912
  -19.8408   31.3884  -20.3515 LP  0  0  0  0  0  0  0  0  0  0  0  0  # atno 4876 bound_to 1912
  -19.0506   28.8517  -12.9795 LP  0  0  0  0  0  0  0  0  0  0  0  0  # atno 4881 bound_to 621 
  -19.5336   27.6669  -13.9942 LP  0  0  0  0  0  0  0  0  0  0  0  0  # atno 4882 bound_to 621 

$$$$
Compound 72|Decoys_protonated|sdf|72|dock1
  -GOLD-   6122416173D 1   1.00000     0.00000

 24 25  0  0  0  0  0  0  0  0  1 V2000
  -21.6765   31.6931  -15.6109 O   0  0  0  0  0  0  0  0  0  0  0  0
  -21.4161   32.8569  -16.3082 C   0  0  0  0  0  0  0  0  0  0  0  0
  -20.5027   30.9566  -15.2817 C   0  0  0  0  0  0  0  0  0  0  0  0
  -20.2119   33.0466  -16.8710 N   0  0  0  0  0  0  0  0  0  0  0  0
  -22.4475   33.7635  -16.3740 C   0  0  0  0  0  0  0  0  0  0  0  0
  -20.0491   34.2091  -17.5298 C   0  0  0  0  0  0  0  0  0  0  0  0
  -22.1899   34.9246  -17.0688 C   0  0  0  0  0  0  0  0  0  0  0  0
  -20.9976   35.1632  -17.6521 N   0  0  0  0  0  0  0  0  0  0  0  0
  -18.7914   34.4497  -18.1395 N   0  0  0  0  0  0  0  0  0  0  0  0
  -23.2472   35.9787  -17.2003 C   0  0  0  0  0  0  0  0  0  0  0  0
  -18.2380   33.7363  -19.1749 C   0  0  0  0  0  0  0  0  0  0  0  0
  -17.8823   35.4344  -17.8208 C   0  0  0  0  0  0  0  0  0  0  0  0
  -17.0568   34.2004  -19.5244 N   0  0  0  0  0  0  0  0  0  0  0  0
  -16.8282   35.2585  -18.6853 C   0  0  0  0  0  0  0  0  0  0  0  0
  -19.8429   31.5350  -14.6257 H   0  0  0  0  0  0  0  0  0  0  0  0
  -20.8135   30.0608  -14.7356 H   0  0  0  0  0  0  0  0  0  0  0  0
  -19.9735   30.6307  -16.1838 H   0  0  0  0  0  0  0  0  0  0  0  0
  -23.4016   33.5668  -15.9041 H   0  0  0  0  0  0  0  0  0  0  0  0
  -22.8780   36.8309  -17.7799 H   0  0  0  0  0  0  0  0  0  0  0  0
  -24.1247   35.5727  -17.7130 H   0  0  0  0  0  0  0  0  0  0  0  0
  -23.5440   36.3423  -16.2116 H   0  0  0  0  0  0  0  0  0  0  0  0
  -18.7420   32.8934  -19.6296 H   0  0  0  0  0  0  0  0  0  0  0  0
  -18.0662   36.1481  -17.0302 H   0  0  0  0  0  0  0  0  0  0  0  0
  -15.9164   35.8387  -18.7472 H   0  0  0  0  0  0  0  0  0  0  0  0
  1  2  1  0  0  0  0
  1  3  1  0  0  0  0
  2  4  2  0  0  0  0
  2  5  1  0  0  0  0
  3 15  1  0  0  0  0
  3 16  1  0  0  0  0
  3 17  1  0  0  0  0
  4  6  1  0  0  0  0
  5  7  2  0  0  0  0
  5 18  1  0  0  0  0
  6  8  2  0  0  0  0
  6  9  1  0  0  0  0
  7 10  1  0  0  0  0
  7  8  1  0  0  0  0
  9 11  1  0  0  0  0
  9 12  1  0  0  0  0
 10 19  1  0  0  0  0
 10 20  1  0  0  0  0
 10 21  1  0  0  0  0
 11 13  2  0  0  0  0
 11 22  1  0  0  0  0
 12 14  2  0  0  0  0
 12 23  1  0  0  0  0
 13 14  1  0  0  0  0
 14 24  1  0  0  0  0
M  END
>  <Column 1>
COc1cc(C)nc(-n2ccnc2)n1 ZINC000000009771

>  <Total Molweight>
190.205

>  <cLogP>
1.0356

>  <cLogS>
-1.271

>  <H-Acceptors>
5

>  <H-Donors>
0

>  <Total Surface Area>
153.02

>  <MMFF94 Energy>
-1.8411

> <Gold.Version>
5.8.1

> <Gold.Id.Protein>
ID|2FQT|mol2

> <Gold.PLP.Fitness>
41.9733

> <Gold.PLP.PLP>
-35.9702

> <Gold.PLP.part.hbond>
-2.3797

> <Gold.PLP.part.metal>
0.0000

> <Gold.PLP.part.buried>
-5.7953

> <Gold.PLP.part.nonpolar>
-29.9860

> <Gold.PLP.part.repulsive>
0.2839

> <Gold.PLP.ligand.clash>
0.0000

> <Gold.PLP.ligand.torsion>
1.4135

> <Gold.PLP.Chemscore.Hbond>
1.9425

> <Gold.PLP.Chemscore.CHOScore>
1.0000

> <Gold.PLP.Chemscore.Metal>
0.0000

> <Gold.Chemscore.Hbonds>
donor molecule, donor type, donor heavy atom, donor atom, acceptor molecule, acceptor atom, score
      P1  H  1223  2650       L1     8  0.94
      P1  H  1239  3336       L1     8  1.00
      L1  C    11    22       P1  1912  1.00

> <Gold.PLP.Chemscore.Internal.Correction>
0.0026

> <Gold.Protein.RotatedTorsions>
[ 3412  950  949  948 ] final -108.93 input   60.00 | X-H torsion
[ 3476 1244 1243 1240 ] final -172.34 input   60.00 | X-H torsion
[ 2649 1223 1224 1225 ] final -155.92 input   60.00 | X-H torsion
[ 4380 1912 1911 1909 ] final  -99.78 input   60.00 | X-H torsion
[ 3084  621  620  617 ] final  -61.30 input   60.00 | X-H torsion

> <Gold.Protein.ActiveResidues>
 HIS54   GLU57   HIS58   ALA61   PHE62   ILE64   ARG65   ASP75   ILE76   ILE77  
 ASP78   ILE79   SER80   PRO81   ILE118  PRO119  ALA120  ALA121  ASN122  LYS124 
 GLN125  CYS126  GLY127  CO701   VAL4    GLU5    SER6    PHE7    GLU8    LEU9   
 HIS11   ARG20   HIS21   CYS22   GLY23   VAL24   HIS25   LYS35   ARG39   MET82  
 GLY83   CYS84   TYR89  

> <Gold.Protein.RotatedAtoms>
  -21.4851   38.1502  -16.0832 H   0  0  0  0  0  0  0  0  0  0  0  0  # atno 2649 bound_to 1223
  -20.8622   37.2609  -17.3355 H   0  0  0  0  0  0  0  0  0  0  0  0  # atno 2650 bound_to 1223
  -19.7546   28.1183  -13.7453 H   0  0  0  0  0  0  0  0  0  0  0  0  # atno 3084 bound_to 621 
  -28.5527   39.3345  -29.0056 H   0  0  0  0  0  0  0  0  0  0  0  0  # atno 3412 bound_to 950 
  -28.6796   38.0130  -28.0131 H   0  0  0  0  0  0  0  0  0  0  0  0  # atno 3413 bound_to 950 
  -27.5983   38.0053  -29.2694 H   0  0  0  0  0  0  0  0  0  0  0  0  # atno 3414 bound_to 950 
  -23.7307   31.7011  -19.6756 H   0  0  0  0  0  0  0  0  0  0  0  0  # atno 3476 bound_to 1244
  -20.5734   30.7530  -20.4258 H   0  0  0  0  0  0  0  0  0  0  0  0  # atno 4380 bound_to 1912
  -22.9624   31.7209  -21.1100 LP  0  0  0  0  0  0  0  0  0  0  0  0  # atno 4866 bound_to 1244
  -24.2996   32.6306  -20.8841 LP  0  0  0  0  0  0  0  0  0  0  0  0  # atno 4867 bound_to 1244
  -20.2814   38.7675  -17.0197 LP  0  0  0  0  0  0  0  0  0  0  0  0  # atno 4874 bound_to 1223
  -19.7629   31.9000  -19.6039 LP  0  0  0  0  0  0  0  0  0  0  0  0  # atno 4875 bound_to 1912
  -21.0982   31.2176  -18.9572 LP  0  0  0  0  0  0  0  0  0  0  0  0  # atno 4876 bound_to 1912
  -18.3096   27.3706  -13.7812 LP  0  0  0  0  0  0  0  0  0  0  0  0  # atno 4881 bound_to 621 
  -18.5114   28.7212  -12.8857 LP  0  0  0  0  0  0  0  0  0  0  0  0  # atno 4882 bound_to 621 

$$$$
Compound 73|Decoys_protonated|sdf|73|dock5
  -GOLD-   6122416173D 1   1.00000     0.00000

 24 25  0  0  0  0  0  0  0  0  1 V2000
  -21.6689   31.8547  -15.5586 O   0  0  0  0  0  0  0  0  0  0  0  0
  -21.4278   32.9959  -16.2998 C   0  0  0  0  0  0  0  0  0  0  0  0
  -20.5002   31.0746  -15.3268 C   0  0  0  0  0  0  0  0  0  0  0  0
  -20.2085   33.2129  -16.8182 N   0  0  0  0  0  0  0  0  0  0  0  0
  -22.4945   33.8495  -16.4533 C   0  0  0  0  0  0  0  0  0  0  0  0
  -20.0632   34.3535  -17.5283 C   0  0  0  0  0  0  0  0  0  0  0  0
  -22.2578   34.9875  -17.1914 C   0  0  0  0  0  0  0  0  0  0  0  0
  -21.0532   35.2525  -17.7328 N   0  0  0  0  0  0  0  0  0  0  0  0
  -18.7693   34.6172  -18.0980 N   0  0  0  0  0  0  0  0  0  0  0  0
  -23.3517   35.9858  -17.4202 C   0  0  0  0  0  0  0  0  0  0  0  0
  -17.9782   35.6574  -17.6997 N   0  0  0  0  0  0  0  0  0  0  0  0
  -18.1542   33.8832  -19.0985 C   0  0  0  0  0  0  0  0  0  0  0  0
  -16.8852   35.5556  -18.4566 C   0  0  0  0  0  0  0  0  0  0  0  0
  -16.9378   34.4711  -19.3454 C   0  0  0  0  0  0  0  0  0  0  0  0
  -19.7583   31.6345  -14.7467 H   0  0  0  0  0  0  0  0  0  0  0  0
  -20.7939   30.2010  -14.7367 H   0  0  0  0  0  0  0  0  0  0  0  0
  -20.0721   30.7124  -16.2680 H   0  0  0  0  0  0  0  0  0  0  0  0
  -23.4594   33.6314  -16.0160 H   0  0  0  0  0  0  0  0  0  0  0  0
  -23.7088   36.3815  -16.4643 H   0  0  0  0  0  0  0  0  0  0  0  0
  -22.9932   36.8257  -18.0241 H   0  0  0  0  0  0  0  0  0  0  0  0
  -24.1868   35.5171  -17.9502 H   0  0  0  0  0  0  0  0  0  0  0  0
  -18.6438   33.0216  -19.5299 H   0  0  0  0  0  0  0  0  0  0  0  0
  -16.0921   36.2813  -18.3267 H   0  0  0  0  0  0  0  0  0  0  0  0
  -16.1943   34.1601  -20.0653 H   0  0  0  0  0  0  0  0  0  0  0  0
  1  2  1  0  0  0  0
  1  3  1  0  0  0  0
  2  4  2  0  0  0  0
  2  5  1  0  0  0  0
  3 15  1  0  0  0  0
  3 16  1  0  0  0  0
  3 17  1  0  0  0  0
  4  6  1  0  0  0  0
  5  7  2  0  0  0  0
  5 18  1  0  0  0  0
  6  8  2  0  0  0  0
  6  9  1  0  0  0  0
  7 10  1  0  0  0  0
  7  8  1  0  0  0  0
  9 11  1  0  0  0  0
  9 12  1  0  0  0  0
 10 19  1  0  0  0  0
 10 20  1  0  0  0  0
 10 21  1  0  0  0  0
 11 13  2  0  0  0  0
 12 14  2  0  0  0  0
 12 22  1  0  0  0  0
 13 14  1  0  0  0  0
 13 23  1  0  0  0  0
 14 24  1  0  0  0  0
M  END
>  <Column 1>
COc1cc(C)nc(-n2cccn2)n1 ZINC000000009772

>  <Total Molweight>
190.205

>  <cLogP>
0.5818

>  <cLogS>
1.098

>  <H-Acceptors>
5

>  <H-Donors>
0

>  <Total Surface Area>
153.02

>  <MMFF94 Energy>
43.319

> <Gold.Version>
5.8.1

> <Gold.Id.Protein>
ID|2FQT|mol2

> <Gold.PLP.Fitness>
43.3655

> <Gold.PLP.PLP>
-36.9379

> <Gold.PLP.part.hbond>
-2.4783

> <Gold.PLP.part.metal>
0.0000

> <Gold.PLP.part.buried>
-6.0061

> <Gold.PLP.part.nonpolar>
-28.9136

> <Gold.PLP.part.repulsive>
0.1495

> <Gold.PLP.ligand.clash>
0.0000

> <Gold.PLP.ligand.torsion>
1.2862

> <Gold.PLP.Chemscore.Hbond>
2.0000

> <Gold.PLP.Chemscore.CHOScore>
1.0000

> <Gold.PLP.Chemscore.Metal>
0.0000

> <Gold.Chemscore.Hbonds>
donor molecule, donor type, donor heavy atom, donor atom, acceptor molecule, acceptor atom, score
      P1  H  1223  2649       L1     8  1.00
      P1  H  1239  3336       L1     8  1.00
      L1  C    12    22       P1  1912  1.00

> <Gold.PLP.Chemscore.Internal.Correction>
0.0000

> <Gold.Protein.RotatedTorsions>
[ 3412  950  949  948 ] final  -10.77 input   60.00 | X-H torsion
[ 3476 1244 1243 1240 ] final   38.48 input   60.00 | X-H torsion
[ 2649 1223 1224 1225 ] final  -34.75 input   60.00 | X-H torsion
[ 4380 1912 1911 1909 ] final  -90.14 input   60.00 | X-H torsion
[ 3084  621  620  617 ] final  174.36 input   60.00 | X-H torsion

> <Gold.Protein.ActiveResidues>
 HIS54   GLU57   HIS58   ALA61   PHE62   ILE64   ARG65   ASP75   ILE76   ILE77  
 ASP78   ILE79   SER80   PRO81   ILE118  PRO119  ALA120  ALA121  ASN122  LYS124 
 GLN125  CYS126  GLY127  CO701   VAL4    GLU5    SER6    PHE7    GLU8    LEU9   
 HIS11   ARG20   HIS21   CYS22   GLY23   VAL24   HIS25   LYS35   ARG39   MET82  
 GLY83   CYS84   TYR89  

> <Gold.Protein.RotatedAtoms>
  -20.8477   37.2685  -17.3465 H   0  0  0  0  0  0  0  0  0  0  0  0  # atno 2649 bound_to 1223
  -20.2767   38.7865  -17.0048 H   0  0  0  0  0  0  0  0  0  0  0  0  # atno 2650 bound_to 1223
  -18.2616   27.4022  -13.7389 H   0  0  0  0  0  0  0  0  0  0  0  0  # atno 3084 bound_to 621 
  -28.8556   38.3299  -28.0102 H   0  0  0  0  0  0  0  0  0  0  0  0  # atno 3412 bound_to 950 
  -27.6742   37.7535  -29.0199 H   0  0  0  0  0  0  0  0  0  0  0  0  # atno 3413 bound_to 950 
  -28.3008   39.2694  -29.2579 H   0  0  0  0  0  0  0  0  0  0  0  0  # atno 3414 bound_to 950 
  -23.2130   32.0229  -21.3746 H   0  0  0  0  0  0  0  0  0  0  0  0  # atno 3476 bound_to 1244
  -20.7003   30.6950  -20.3529 H   0  0  0  0  0  0  0  0  0  0  0  0  # atno 4380 bound_to 1912
  -24.4358   32.5459  -20.4370 LP  0  0  0  0  0  0  0  0  0  0  0  0  # atno 4866 bound_to 1244
  -23.3475   31.4815  -19.8460 LP  0  0  0  0  0  0  0  0  0  0  0  0  # atno 4867 bound_to 1244
  -21.4862   38.1332  -16.1009 LP  0  0  0  0  0  0  0  0  0  0  0  0  # atno 4874 bound_to 1223
  -19.7224   31.8462  -19.7474 LP  0  0  0  0  0  0  0  0  0  0  0  0  # atno 4875 bound_to 1912
  -21.0108   31.3298  -18.8871 LP  0  0  0  0  0  0  0  0  0  0  0  0  # atno 4876 bound_to 1912
  -18.5756   28.7520  -12.8859 LP  0  0  0  0  0  0  0  0  0  0  0  0  # atno 4881 bound_to 621 
  -19.7489   28.0609  -13.7873 LP  0  0  0  0  0  0  0  0  0  0  0  0  # atno 4882 bound_to 621 

$$$$
Compound 74|Decoys_protonated|sdf|74|dock3
  -GOLD-   6122416173D 1   1.00000     0.00000

 26 27  0  0  0  0  0  0  0  0  1 V2000
  -20.3359   34.2464  -17.2371 S   0  0  0  0  0  0  0  0  0  0  0  0
  -20.8110   35.4765  -17.8414 O   0  0  0  0  0  0  0  0  0  0  0  0
  -19.5305   33.3185  -17.9983 O   0  0  0  0  0  0  0  0  0  0  0  0
  -19.5712   34.6511  -15.8121 N   0  0  0  0  0  0  0  0  0  0  0  0
  -21.7600   33.3600  -16.6415 C   0  0  0  0  0  0  0  0  0  0  0  0
  -18.2190   35.0109  -15.6822 C   0  0  0  0  0  0  0  0  0  0  0  0
  -20.2021   34.3091  -14.5320 C   0  0  0  0  0  0  0  0  0  0  0  0
  -22.9793   34.0332  -16.5176 C   0  0  0  0  0  0  0  0  0  0  0  0
  -21.6442   32.0170  -16.2706 C   0  0  0  0  0  0  0  0  0  0  0  0
  -17.4178   35.2024  -16.5777 O   0  0  0  0  0  0  0  0  0  0  0  0
  -17.9307   35.1171  -14.2074 C   0  0  0  0  0  0  0  0  0  0  0  0
  -18.9935   34.1993  -13.6029 C   0  0  0  0  0  0  0  0  0  0  0  0
  -24.0970   33.3467  -16.0449 C   0  0  0  0  0  0  0  0  0  0  0  0
  -22.7672   31.3379  -15.7978 C   0  0  0  0  0  0  0  0  0  0  0  0
  -23.9911   32.0010  -15.6889 C   0  0  0  0  0  0  0  0  0  0  0  0
  -20.7579   33.3687  -14.5574 H   0  0  0  0  0  0  0  0  0  0  0  0
  -20.8632   35.1240  -14.2206 H   0  0  0  0  0  0  0  0  0  0  0  0
  -23.0621   35.0864  -16.7824 H   0  0  0  0  0  0  0  0  0  0  0  0
  -20.6908   31.4981  -16.3384 H   0  0  0  0  0  0  0  0  0  0  0  0
  -18.0673   36.1557  -13.8916 H   0  0  0  0  0  0  0  0  0  0  0  0
  -16.9181   34.7799  -13.9751 H   0  0  0  0  0  0  0  0  0  0  0  0
  -19.2361   34.4606  -12.5689 H   0  0  0  0  0  0  0  0  0  0  0  0
  -18.6242   33.1658  -13.6081 H   0  0  0  0  0  0  0  0  0  0  0  0
  -25.0488   33.8633  -15.9459 H   0  0  0  0  0  0  0  0  0  0  0  0
  -22.6883   30.2939  -15.5043 H   0  0  0  0  0  0  0  0  0  0  0  0
  -24.8635   31.4707  -15.3140 H   0  0  0  0  0  0  0  0  0  0  0  0
  1  2  2  0  0  0  0
  1  3  2  0  0  0  0
  1  4  1  0  0  0  0
  1  5  1  0  0  0  0
  4  6  1  0  0  0  0
  4  7  1  0  0  0  0
  5  8  2  0  0  0  0
  5  9  1  0  0  0  0
  6 10  2  0  0  0  0
  6 11  1  0  0  0  0
  7 12  1  0  0  0  0
  7 16  1  0  0  0  0
  7 17  1  0  0  0  0
  8 13  1  0  0  0  0
  8 18  1  0  0  0  0
  9 14  2  0  0  0  0
  9 19  1  0  0  0  0
 11 12  1  0  0  0  0
 11 20  1  0  0  0  0
 11 21  1  0  0  0  0
 12 22  1  0  0  0  0
 12 23  1  0  0  0  0
 13 15  2  0  0  0  0
 13 24  1  0  0  0  0
 14 15  1  0  0  0  0
 14 25  1  0  0  0  0
 15 26  1  0  0  0  0
M  END
>  <Column 1>
O=C1CCCN1S(=O)(=O)c1ccccc1 ZINC000000010405

>  <Total Molweight>
225.267

>  <cLogP>
0.9582

>  <cLogS>
-1.423

>  <H-Acceptors>
4

>  <H-Donors>
0

>  <Total Surface Area>
157.67

>  <MMFF94 Energy>
-62.745

> <Gold.Version>
5.8.1

> <Gold.Id.Protein>
ID|2FQT|mol2

> <Gold.PLP.Fitness>
49.7283

> <Gold.PLP.PLP>
-39.1252

> <Gold.PLP.part.hbond>
-5.0000

> <Gold.PLP.part.metal>
0.0000

> <Gold.PLP.part.buried>
-5.9131

> <Gold.PLP.part.nonpolar>
-28.7099

> <Gold.PLP.part.repulsive>
0.1489

> <Gold.PLP.ligand.clash>
0.0000

> <Gold.PLP.ligand.torsion>
2.2638

> <Gold.PLP.Chemscore.Hbond>
3.7137

> <Gold.PLP.Chemscore.CHOScore>
0.0000

> <Gold.PLP.Chemscore.Metal>
0.0000

> <Gold.Chemscore.Hbonds>
donor molecule, donor type, donor heavy atom, donor atom, acceptor molecule, acceptor atom, score
      P1  H  1223  2649       L1     2  1.00
      P1  H  1912  4380       L1     3  1.00
      P1  H  1239  3336       L1     2  1.00
      P1  H  1466  3954       L1    10  0.71

> <Gold.PLP.Chemscore.Internal.Correction>
3.9897

> <Gold.Protein.RotatedTorsions>
[ 3412  950  949  948 ] final  -45.58 input   60.00 | X-H torsion
[ 3476 1244 1243 1240 ] final   17.67 input   60.00 | X-H torsion
[ 2649 1223 1224 1225 ] final  -42.80 input   60.00 | X-H torsion
[ 4380 1912 1911 1909 ] final  103.49 input   60.00 | X-H torsion
[ 3084  621  620  617 ] final  102.61 input   60.00 | X-H torsion

> <Gold.Protein.ActiveResidues>
 HIS54   GLU57   HIS58   ALA61   PHE62   ILE64   ARG65   ASP75   ILE76   ILE77  
 ASP78   ILE79   SER80   PRO81   ILE118  PRO119  ALA120  ALA121  ASN122  LYS124 
 GLN125  CYS126  GLY127  CO701   VAL4    GLU5    SER6    PHE7    GLU8    LEU9   
 HIS11   ARG20   HIS21   CYS22   GLY23   VAL24   HIS25   LYS35   ARG39   MET82  
 GLY83   CYS84   TYR89  

> <Gold.Protein.RotatedAtoms>
  -20.9463   37.2234  -17.2670 H   0  0  0  0  0  0  0  0  0  0  0  0  # atno 2649 bound_to 1223
  -20.2304   38.7095  -17.1048 H   0  0  0  0  0  0  0  0  0  0  0  0  # atno 2650 bound_to 1223
  -18.0345   28.2368  -13.0635 H   0  0  0  0  0  0  0  0  0  0  0  0  # atno 3084 bound_to 621 
  -28.9585   38.8512  -28.2234 H   0  0  0  0  0  0  0  0  0  0  0  0  # atno 3412 bound_to 950 
  -27.9650   37.5686  -28.5626 H   0  0  0  0  0  0  0  0  0  0  0  0  # atno 3413 bound_to 950 
  -27.9071   38.9329  -29.5020 H   0  0  0  0  0  0  0  0  0  0  0  0  # atno 3414 bound_to 950 
  -23.4642   32.2395  -21.4415 H   0  0  0  0  0  0  0  0  0  0  0  0  # atno 3476 bound_to 1244
  -20.0869   31.9337  -19.1096 H   0  0  0  0  0  0  0  0  0  0  0  0  # atno 4380 bound_to 1912
  -24.4134   32.4006  -20.1296 LP  0  0  0  0  0  0  0  0  0  0  0  0  # atno 4866 bound_to 1244
  -23.1169   31.4088  -20.0860 LP  0  0  0  0  0  0  0  0  0  0  0  0  # atno 4867 bound_to 1244
  -21.4346   38.2535  -16.0807 LP  0  0  0  0  0  0  0  0  0  0  0  0  # atno 4874 bound_to 1223
  -21.2558   30.8352  -19.3836 LP  0  0  0  0  0  0  0  0  0  0  0  0  # atno 4875 bound_to 1912
  -20.0953   31.0934  -20.5031 LP  0  0  0  0  0  0  0  0  0  0  0  0  # atno 4876 bound_to 1912
  -19.5894   28.6469  -13.3130 LP  0  0  0  0  0  0  0  0  0  0  0  0  # atno 4881 bound_to 621 
  -18.9637   27.3256  -14.0404 LP  0  0  0  0  0  0  0  0  0  0  0  0  # atno 4882 bound_to 621 

$$$$
Compound 75|Decoys_protonated|sdf|75|dock1
  -GOLD-   6122416173D 1   1.00000     0.00000

 30 32  0  0  0  0  0  0  0  0  1 V2000
  -23.9956   29.2596  -17.9175 O   0  0  0  0  0  0  0  0  0  0  0  0
  -23.9008   30.4314  -17.2340 C   0  0  0  0  0  0  0  0  0  0  0  0
  -25.4058   29.2358  -18.2205 C   0  0  0  0  0  0  0  0  0  0  0  0
  -25.1104   31.0741  -17.1250 C   0  0  0  0  0  0  0  0  0  0  0  0
  -22.7450   30.9573  -16.6953 C   0  0  0  0  0  0  0  0  0  0  0  0
  -26.1195   30.3875  -17.7237 O   0  0  0  0  0  0  0  0  0  0  0  0
  -25.2329   32.2814  -16.4744 C   0  0  0  0  0  0  0  0  0  0  0  0
  -22.8282   32.1832  -16.0125 C   0  0  0  0  0  0  0  0  0  0  0  0
  -24.0782   32.8408  -15.9178 C   0  0  0  0  0  0  0  0  0  0  0  0
  -21.5941   32.8220  -15.4098 C   0  0  0  0  0  0  0  0  0  0  0  0
  -20.5960   33.3378  -16.4051 C   0  0  0  0  0  0  0  0  0  0  0  0
  -20.7970   34.4442  -17.2089 C   0  0  0  0  0  0  0  0  0  0  0  0
  -19.3877   32.6979  -16.5950 C   0  0  0  0  0  0  0  0  0  0  0  0
  -19.9051   34.8459  -18.1267 N   0  0  0  0  0  0  0  0  0  0  0  0
  -21.9643   35.1858  -17.1615 N   0  0  0  0  0  0  0  0  0  0  0  0
  -18.4609   33.0861  -17.4874 N   0  0  0  0  0  0  0  0  0  0  0  0
  -18.7682   34.1530  -18.2249 C   0  0  0  0  0  0  0  0  0  0  0  0
  -17.8527   34.5646  -19.1475 N   0  0  0  0  0  0  0  0  0  0  0  0
  -25.8445   28.3340  -17.7781 H   0  0  0  0  0  0  0  0  0  0  0  0
  -25.5297   29.1896  -19.3085 H   0  0  0  0  0  0  0  0  0  0  0  0
  -21.8067   30.4233  -16.8028 H   0  0  0  0  0  0  0  0  0  0  0  0
  -26.1925   32.7811  -16.4016 H   0  0  0  0  0  0  0  0  0  0  0  0
  -24.1549   33.7990  -15.4055 H   0  0  0  0  0  0  0  0  0  0  0  0
  -21.0814   32.1124  -14.7469 H   0  0  0  0  0  0  0  0  0  0  0  0
  -21.9297   33.6339  -14.7506 H   0  0  0  0  0  0  0  0  0  0  0  0
  -19.1157   31.8176  -16.0191 H   0  0  0  0  0  0  0  0  0  0  0  0
  -22.7453   34.7861  -16.6603 H   0  0  0  0  0  0  0  0  0  0  0  0
  -21.7817   36.1679  -16.9916 H   0  0  0  0  0  0  0  0  0  0  0  0
  -18.0780   35.3674  -19.7068 H   0  0  0  0  0  0  0  0  0  0  0  0
  -16.9909   34.0542  -19.2152 H   0  0  0  0  0  0  0  0  0  0  0  0
  1  2  1  0  0  0  0
  1  3  1  0  0  0  0
  2  4  2  0  0  0  0
  2  5  1  0  0  0  0
  3  6  1  0  0  0  0
  3 19  1  0  0  0  0
  3 20  1  0  0  0  0
  4  7  1  0  0  0  0
  4  6  1  0  0  0  0
  5  8  2  0  0  0  0
  5 21  1  0  0  0  0
  7  9  2  0  0  0  0
  7 22  1  0  0  0  0
  8 10  1  0  0  0  0
  8  9  1  0  0  0  0
  9 23  1  0  0  0  0
 10 11  1  0  0  0  0
 10 24  1  0  0  0  0
 10 25  1  0  0  0  0
 11 12  2  0  0  0  0
 11 13  1  0  0  0  0
 12 14  1  0  0  0  0
 12 15  1  0  0  0  0
 13 16  2  0  0  0  0
 13 26  1  0  0  0  0
 14 17  2  0  0  0  0
 15 27  1  0  0  0  0
 15 28  1  0  0  0  0
 16 17  1  0  0  0  0
 17 18  1  0  0  0  0
 18 29  1  0  0  0  0
 18 30  1  0  0  0  0
M  END
>  <Column 1>
Nc1ncc(Cc2ccc3c(c2)OCO3)c(N)n1 ZINC000000010465

>  <Total Molweight>
244.253

>  <cLogP>
1.39

>  <cLogS>
-3.982

>  <H-Acceptors>
6

>  <H-Donors>
2

>  <Total Surface Area>
181.6

>  <MMFF94 Energy>
-110.33

> <Gold.Version>
5.8.1

> <Gold.Id.Protein>
ID|2FQT|mol2

> <Gold.PLP.Fitness>
62.1003

> <Gold.PLP.PLP>
-48.3018

> <Gold.PLP.part.hbond>
-2.8854

> <Gold.PLP.part.metal>
-0.8007

> <Gold.PLP.part.buried>
-8.2318

> <Gold.PLP.part.nonpolar>
-38.3779

> <Gold.PLP.part.repulsive>
0.4706

> <Gold.PLP.ligand.clash>
0.0000

> <Gold.PLP.ligand.torsion>
0.2009

> <Gold.PLP.Chemscore.Hbond>
2.1601

> <Gold.PLP.Chemscore.CHOScore>
0.7799

> <Gold.PLP.Chemscore.Metal>
0.8963

> <Gold.Chemscore.Hbonds>
donor molecule, donor type, donor heavy atom, donor atom, acceptor molecule, acceptor atom, score
      L1  H    15    28       P1  1223  0.91
      P1  H  1239  3336       L1    14  1.00
      P1  H  1466  3954       L1    16  0.25
      L1  C    13    26       P1   606  0.78
      P1  M  1222  1222       L1     6  0.90

> <Gold.PLP.Chemscore.Internal.Correction>
0.0021

> <Gold.Protein.RotatedTorsions>
[ 3412  950  949  948 ] final   70.71 input   60.00 | X-H torsion
[ 3476 1244 1243 1240 ] final  177.17 input   60.00 | X-H torsion
[ 2649 1223 1224 1225 ] final   52.65 input   60.00 | X-H torsion
[ 4380 1912 1911 1909 ] final  -48.57 input   60.00 | X-H torsion
[ 3084  621  620  617 ] final  157.51 input   60.00 | X-H torsion

> <Gold.Protein.ActiveResidues>
 HIS54   GLU57   HIS58   ALA61   PHE62   ILE64   ARG65   ASP75   ILE76   ILE77  
 ASP78   ILE79   SER80   PRO81   ILE118  PRO119  ALA120  ALA121  ASN122  LYS124 
 GLN125  CYS126  GLY127  CO701   VAL4    GLU5    SER6    PHE7    GLU8    LEU9   
 HIS11   ARG20   HIS21   CYS22   GLY23   VAL24   HIS25   LYS35   ARG39   MET82  
 GLY83   CYS84   TYR89  

> <Gold.Protein.RotatedAtoms>
  -20.1701   38.4038  -17.3662 H   0  0  0  0  0  0  0  0  0  0  0  0  # atno 2649 bound_to 1223
  -21.2167   38.5935  -16.0952 H   0  0  0  0  0  0  0  0  0  0  0  0  # atno 2650 bound_to 1223
  -18.0924   27.5457  -13.5776 H   0  0  0  0  0  0  0  0  0  0  0  0  # atno 3084 bound_to 621 
  -28.0048   37.5675  -28.5153 H   0  0  0  0  0  0  0  0  0  0  0  0  # atno 3412 bound_to 950 
  -27.8708   38.8841  -29.5132 H   0  0  0  0  0  0  0  0  0  0  0  0  # atno 3413 bound_to 950 
  -28.9549   38.9012  -28.2595 H   0  0  0  0  0  0  0  0  0  0  0  0  # atno 3414 bound_to 950 
  -23.5900   31.6114  -19.7139 H   0  0  0  0  0  0  0  0  0  0  0  0  # atno 3476 bound_to 1244
  -21.1343   30.6479  -19.8520 H   0  0  0  0  0  0  0  0  0  0  0  0  # atno 4380 bound_to 1912
  -23.0338   31.8240  -21.2283 LP  0  0  0  0  0  0  0  0  0  0  0  0  # atno 4866 bound_to 1244
  -24.3699   32.6178  -20.7272 LP  0  0  0  0  0  0  0  0  0  0  0  0  # atno 4867 bound_to 1244
  -21.2277   37.2049  -16.9776 LP  0  0  0  0  0  0  0  0  0  0  0  0  # atno 4874 bound_to 1223
  -19.7951   31.4618  -20.2903 LP  0  0  0  0  0  0  0  0  0  0  0  0  # atno 4875 bound_to 1912
  -20.5011   31.7616  -18.8487 LP  0  0  0  0  0  0  0  0  0  0  0  0  # atno 4876 bound_to 1912
  -18.8376   28.8335  -12.9186 LP  0  0  0  0  0  0  0  0  0  0  0  0  # atno 4881 bound_to 621 
  -19.6574   27.8348  -13.9171 LP  0  0  0  0  0  0  0  0  0  0  0  0  # atno 4882 bound_to 621 

$$$$
Compound 76|Decoys_protonated|sdf|76|dock2
  -GOLD-   6122416173D 1   1.00000     0.00000

 32 33  0  0  0  0  0  0  0  0  1 V2000
  -23.8041   31.6941  -15.6395 O   0  0  0  0  0  0  0  0  0  0  0  0
  -22.5320   32.1692  -15.8322 C   0  0  0  0  0  0  0  0  0  0  0  0
  -24.8518   32.3806  -16.3136 C   0  0  0  0  0  0  0  0  0  0  0  0
  -21.5246   31.4273  -15.2056 C   0  0  0  0  0  0  0  0  0  0  0  0
  -22.1750   33.2937  -16.5789 C   0  0  0  0  0  0  0  0  0  0  0  0
  -21.8431   30.3188  -14.4685 O   0  0  0  0  0  0  0  0  0  0  0  0
  -20.1873   31.7847  -15.3069 C   0  0  0  0  0  0  0  0  0  0  0  0
  -20.8238   33.6723  -16.6958 C   0  0  0  0  0  0  0  0  0  0  0  0
  -19.8365   32.9084  -16.0522 C   0  0  0  0  0  0  0  0  0  0  0  0
  -20.4332   34.8914  -17.5032 C   0  0  0  0  0  0  0  0  0  0  0  0
  -18.9731   34.9534  -17.8422 C   0  0  0  0  0  0  0  0  0  0  0  0
  -18.3922   34.3415  -18.9366 C   0  0  0  0  0  0  0  0  0  0  0  0
  -18.0896   35.6294  -17.0232 C   0  0  0  0  0  0  0  0  0  0  0  0
  -17.0726   34.3839  -19.1748 N   0  0  0  0  0  0  0  0  0  0  0  0
  -19.1177   33.5902  -19.8423 N   0  0  0  0  0  0  0  0  0  0  0  0
  -16.7667   35.7140  -17.2446 N   0  0  0  0  0  0  0  0  0  0  0  0
  -16.3121   35.0730  -18.3205 C   0  0  0  0  0  0  0  0  0  0  0  0
  -14.9717   35.1255  -18.5649 N   0  0  0  0  0  0  0  0  0  0  0  0
  -24.9134   33.4244  -15.9884 H   0  0  0  0  0  0  0  0  0  0  0  0
  -25.7950   31.8931  -16.0486 H   0  0  0  0  0  0  0  0  0  0  0  0
  -24.7342   32.3097  -17.3999 H   0  0  0  0  0  0  0  0  0  0  0  0
  -22.9281   33.8919  -17.0809 H   0  0  0  0  0  0  0  0  0  0  0  0
  -21.6890   30.5825  -13.5408 H   0  0  0  0  0  0  0  0  0  0  0  0
  -19.4255   31.1945  -14.8064 H   0  0  0  0  0  0  0  0  0  0  0  0
  -18.7870   33.1893  -16.1236 H   0  0  0  0  0  0  0  0  0  0  0  0
  -20.6997   35.8047  -16.9538 H   0  0  0  0  0  0  0  0  0  0  0  0
  -21.0603   34.9259  -18.4019 H   0  0  0  0  0  0  0  0  0  0  0  0
  -18.4287   36.1393  -16.1256 H   0  0  0  0  0  0  0  0  0  0  0  0
  -18.8629   33.6241  -20.8170 H   0  0  0  0  0  0  0  0  0  0  0  0
  -19.3522   32.6760  -19.4717 H   0  0  0  0  0  0  0  0  0  0  0  0
  -14.6246   34.6436  -19.3745 H   0  0  0  0  0  0  0  0  0  0  0  0
  -14.4076   35.7049  -17.9699 H   0  0  0  0  0  0  0  0  0  0  0  0
  1  2  1  0  0  0  0
  1  3  1  0  0  0  0
  2  4  2  0  0  0  0
  2  5  1  0  0  0  0
  3 19  1  0  0  0  0
  3 20  1  0  0  0  0
  3 21  1  0  0  0  0
  4  6  1  0  0  0  0
  4  7  1  0  0  0  0
  5  8  2  0  0  0  0
  5 22  1  0  0  0  0
  6 23  1  0  0  0  0
  7  9  2  0  0  0  0
  7 24  1  0  0  0  0
  8 10  1  0  0  0  0
  8  9  1  0  0  0  0
  9 25  1  0  0  0  0
 10 11  1  0  0  0  0
 10 26  1  0  0  0  0
 10 27  1  0  0  0  0
 11 12  2  0  0  0  0
 11 13  1  0  0  0  0
 12 14  1  0  0  0  0
 12 15  1  0  0  0  0
 13 16  2  0  0  0  0
 13 28  1  0  0  0  0
 14 17  2  0  0  0  0
 15 29  1  0  0  0  0
 15 30  1  0  0  0  0
 16 17  1  0  0  0  0
 17 18  1  0  0  0  0
 18 31  1  0  0  0  0
 18 32  1  0  0  0  0
M  END
>  <Column 1>
COc1cc(Cc2cnc(N)nc2N)ccc1O ZINC000000010467

>  <Total Molweight>
246.269

>  <cLogP>
0.8629

>  <cLogS>
-2.993

>  <H-Acceptors>
6

>  <H-Donors>
3

>  <Total Surface Area>
189.95

>  <MMFF94 Energy>
-108.11

> <Gold.Version>
5.8.1

> <Gold.Id.Protein>
ID|2FQT|mol2

> <Gold.PLP.Fitness>
57.5677

> <Gold.PLP.PLP>
-46.9035

> <Gold.PLP.part.hbond>
-6.2417

> <Gold.PLP.part.metal>
0.0000

> <Gold.PLP.part.buried>
-9.6491

> <Gold.PLP.part.nonpolar>
-33.8736

> <Gold.PLP.part.repulsive>
0.4706

> <Gold.PLP.ligand.clash>
0.0000

> <Gold.PLP.ligand.torsion>
0.5723

> <Gold.PLP.Chemscore.Hbond>
3.9345

> <Gold.PLP.Chemscore.CHOScore>
0.0000

> <Gold.PLP.Chemscore.Metal>
0.0000

> <Gold.Chemscore.Hbonds>
donor molecule, donor type, donor heavy atom, donor atom, acceptor molecule, acceptor atom, score
      L1  H     6    23       P1   611  1.00
      L1  H    15    29       P1  1237  0.99
      L1  H    15    30       P1  1912  1.00
      L1  H    18    32       P1  1396  0.94

> <Gold.PLP.Chemscore.Internal.Correction>
0.0053

> <Gold.Protein.RotatedTorsions>
[ 3412  950  949  948 ] final  -34.25 input   60.00 | X-H torsion
[ 3476 1244 1243 1240 ] final  157.02 input   60.00 | X-H torsion
[ 2649 1223 1224 1225 ] final -170.42 input   60.00 | X-H torsion
[ 4380 1912 1911 1909 ] final  -80.43 input   60.00 | X-H torsion
[ 3084  621  620  617 ] final  139.37 input   60.00 | X-H torsion

> <Gold.Protein.ActiveResidues>
 HIS54   GLU57   HIS58   ALA61   PHE62   ILE64   ARG65   ASP75   ILE76   ILE77  
 ASP78   ILE79   SER80   PRO81   ILE118  PRO119  ALA120  ALA121  ASN122  LYS124 
 GLN125  CYS126  GLY127  CO701   VAL4    GLU5    SER6    PHE7    GLU8    LEU9   
 HIS11   ARG20   HIS21   CYS22   GLY23   VAL24   HIS25   LYS35   ARG39   MET82  
 GLY83   CYS84   TYR89  

> <Gold.Protein.RotatedAtoms>
  -21.3798   38.3665  -16.0608 H   0  0  0  0  0  0  0  0  0  0  0  0  # atno 2649 bound_to 1223
  -21.0382   37.1960  -17.1835 H   0  0  0  0  0  0  0  0  0  0  0  0  # atno 2650 bound_to 1223
  -17.9842   27.7501  -13.3939 H   0  0  0  0  0  0  0  0  0  0  0  0  # atno 3084 bound_to 621 
  -28.9517   38.6886  -28.1273 H   0  0  0  0  0  0  0  0  0  0  0  0  # atno 3412 bound_to 950 
  -27.8517   37.5951  -28.7117 H   0  0  0  0  0  0  0  0  0  0  0  0  # atno 3413 bound_to 950 
  -28.0271   39.0691  -29.4491 H   0  0  0  0  0  0  0  0  0  0  0  0  # atno 3414 bound_to 950 
  -23.3305   31.4795  -19.8644 H   0  0  0  0  0  0  0  0  0  0  0  0  # atno 3476 bound_to 1244
  -20.8217   30.6536  -20.2599 H   0  0  0  0  0  0  0  0  0  0  0  0  # atno 4380 bound_to 1912
  -23.2274   32.0370  -21.3897 LP  0  0  0  0  0  0  0  0  0  0  0  0  # atno 4866 bound_to 1244
  -24.4376   32.5378  -20.4143 LP  0  0  0  0  0  0  0  0  0  0  0  0  # atno 4867 bound_to 1244
  -20.2116   38.6185  -17.1915 LP  0  0  0  0  0  0  0  0  0  0  0  0  # atno 4874 bound_to 1223
  -19.7033   31.7761  -19.8895 LP  0  0  0  0  0  0  0  0  0  0  0  0  # atno 4875 bound_to 1912
  -20.9077   31.4416  -18.8387 LP  0  0  0  0  0  0  0  0  0  0  0  0  # atno 4876 bound_to 1912
  -19.1213   28.8480  -13.0067 LP  0  0  0  0  0  0  0  0  0  0  0  0  # atno 4881 bound_to 621 
  -19.4826   27.6145  -14.0140 LP  0  0  0  0  0  0  0  0  0  0  0  0  # atno 4882 bound_to 621 

$$$$
Compound 77|Decoys_protonated|sdf|77|dock5
  -GOLD-   6122416173D 1   1.00000     0.00000

 40 42  0  0  0  0  0  0  0  0  1 V2000
  -20.9867   33.0369  -17.2772 N   0  0  0  0  0  0  0  0  0  0  0  0
  -20.5922   34.3163  -17.3505 C   0  0  0  0  0  0  0  0  0  0  0  0
  -22.2407   32.7701  -16.8551 C   0  0  0  0  0  0  0  0  0  0  0  0
  -21.4025   35.3320  -17.0160 N   0  0  0  0  0  0  0  0  0  0  0  0
  -19.3066   34.5971  -17.7726 N   0  0  0  0  0  0  0  0  0  0  0  0
  -23.1310   33.7596  -16.4720 C   0  0  0  0  0  0  0  0  0  0  0  0
  -22.6016   31.3099  -16.7696 C   0  0  0  0  0  0  0  0  0  0  0  0
  -22.6540   35.0548  -16.5904 C   0  0  0  0  0  0  0  0  0  0  0  0
  -18.4655   35.4018  -16.8877 C   0  0  0  0  0  0  0  0  0  0  0  0
  -18.6347   33.5986  -18.6028 C   0  0  0  0  0  0  0  0  0  0  0  0
  -24.5337   33.4449  -16.0354 C   0  0  0  0  0  0  0  0  0  0  0  0
  -24.1071   31.0673  -16.7151 C   0  0  0  0  0  0  0  0  0  0  0  0
  -23.5002   36.2459  -16.2475 C   0  0  0  0  0  0  0  0  0  0  0  0
  -17.2094   35.9195  -17.6235 C   0  0  0  0  0  0  0  0  0  0  0  0
  -17.3722   34.1837  -19.2747 C   0  0  0  0  0  0  0  0  0  0  0  0
  -24.7440   31.9749  -15.6710 C   0  0  0  0  0  0  0  0  0  0  0  0
  -16.4610   34.8496  -18.3184 N   0  0  0  0  0  0  0  0  0  0  0  0
  -15.3011   35.4024  -19.0140 C   0  0  0  0  0  0  0  0  0  0  0  0
  -22.1325   30.8997  -15.8667 H   0  0  0  0  0  0  0  0  0  0  0  0
  -22.1800   30.7750  -17.6288 H   0  0  0  0  0  0  0  0  0  0  0  0
  -19.0028   36.2806  -16.5102 H   0  0  0  0  0  0  0  0  0  0  0  0
  -18.1595   34.7974  -16.0239 H   0  0  0  0  0  0  0  0  0  0  0  0
  -18.3529   32.7373  -17.9836 H   0  0  0  0  0  0  0  0  0  0  0  0
  -19.2885   33.2365  -19.4058 H   0  0  0  0  0  0  0  0  0  0  0  0
  -24.8086   34.0539  -15.1668 H   0  0  0  0  0  0  0  0  0  0  0  0
  -25.2131   33.7091  -16.8556 H   0  0  0  0  0  0  0  0  0  0  0  0
  -24.5554   31.2636  -17.6973 H   0  0  0  0  0  0  0  0  0  0  0  0
  -24.3037   30.0165  -16.4745 H   0  0  0  0  0  0  0  0  0  0  0  0
  -23.7441   36.2453  -15.1808 H   0  0  0  0  0  0  0  0  0  0  0  0
  -24.4243   36.2423  -16.8338 H   0  0  0  0  0  0  0  0  0  0  0  0
  -22.9688   37.1775  -16.4695 H   0  0  0  0  0  0  0  0  0  0  0  0
  -16.5577   36.4031  -16.8856 H   0  0  0  0  0  0  0  0  0  0  0  0
  -17.5160   36.6924  -18.3418 H   0  0  0  0  0  0  0  0  0  0  0  0
  -16.8429   33.3646  -19.7761 H   0  0  0  0  0  0  0  0  0  0  0  0
  -17.6849   34.8931  -20.0533 H   0  0  0  0  0  0  0  0  0  0  0  0
  -24.3005   31.7688  -14.6884 H   0  0  0  0  0  0  0  0  0  0  0  0
  -25.8164   31.7651  -15.5884 H   0  0  0  0  0  0  0  0  0  0  0  0
  -14.6171   35.8761  -18.3010 H   0  0  0  0  0  0  0  0  0  0  0  0
  -15.5815   36.1465  -19.7683 H   0  0  0  0  0  0  0  0  0  0  0  0
  -14.7364   34.6053  -19.5099 H   0  0  0  0  0  0  0  0  0  0  0  0
  1  2  2  0  0  0  0
  1  3  1  0  0  0  0
  2  4  1  0  0  0  0
  2  5  1  0  0  0  0
  3  6  2  0  0  0  0
  3  7  1  0  0  0  0
  4  8  2  0  0  0  0
  5  9  1  0  0  0  0
  5 10  1  0  0  0  0
  6 11  1  0  0  0  0
  6  8  1  0  0  0  0
  7 12  1  0  0  0  0
  7 19  1  0  0  0  0
  7 20  1  0  0  0  0
  8 13  1  0  0  0  0
  9 14  1  0  0  0  0
  9 21  1  0  0  0  0
  9 22  1  0  0  0  0
 10 15  1  0  0  0  0
 10 23  1  0  0  0  0
 10 24  1  0  0  0  0
 11 16  1  0  0  0  0
 11 25  1  0  0  0  0
 11 26  1  0  0  0  0
 12 16  1  0  0  0  0
 12 27  1  0  0  0  0
 12 28  1  0  0  0  0
 13 29  1  0  0  0  0
 13 30  1  0  0  0  0
 13 31  1  0  0  0  0
 14 17  1  0  0  0  0
 14 32  1  0  0  0  0
 14 33  1  0  0  0  0
 15 17  1  0  0  0  0
 15 34  1  0  0  0  0
 15 35  1  0  0  0  0
 16 36  1  0  0  0  0
 16 37  1  0  0  0  0
 17 18  1  0  0  0  0
 18 38  1  0  0  0  0
 18 39  1  0  0  0  0
 18 40  1  0  0  0  0
M  END
>  <Column 1>
Cc1nc(N2CCN(C)CC2)nc2c1CCCC2 ZINC000000010490

>  <Total Molweight>
246.357

>  <cLogP>
1.853

>  <cLogS>
-1.972

>  <H-Acceptors>
4

>  <H-Donors>
0

>  <Total Surface Area>
198.98

>  <MMFF94 Energy>
5.8798

> <Gold.Version>
5.8.1

> <Gold.Id.Protein>
ID|2FQT|mol2

> <Gold.PLP.Fitness>
62.5520

> <Gold.PLP.PLP>
-55.0496

> <Gold.PLP.part.hbond>
-2.8956

> <Gold.PLP.part.metal>
0.0000

> <Gold.PLP.part.buried>
-5.3066

> <Gold.PLP.part.nonpolar>
-47.7558

> <Gold.PLP.part.repulsive>
0.0934

> <Gold.PLP.ligand.clash>
0.0000

> <Gold.PLP.ligand.torsion>
0.6285

> <Gold.PLP.Chemscore.Hbond>
2.8450

> <Gold.PLP.Chemscore.CHOScore>
0.0000

> <Gold.PLP.Chemscore.Metal>
0.0000

> <Gold.Chemscore.Hbonds>
donor molecule, donor type, donor heavy atom, donor atom, acceptor molecule, acceptor atom, score
      P1  H  1223  2650       L1     4  1.00
      P1  H  1912  4380       L1     1  1.00
      P1  H  1466  3954       L1    17  0.84

> <Gold.PLP.Chemscore.Internal.Correction>
0.2245

> <Gold.Protein.RotatedTorsions>
[ 3412  950  949  948 ] final -111.30 input   60.00 | X-H torsion
[ 3476 1244 1243 1240 ] final   51.72 input   60.00 | X-H torsion
[ 2649 1223 1224 1225 ] final -164.75 input   60.00 | X-H torsion
[ 4380 1912 1911 1909 ] final   73.67 input   60.00 | X-H torsion
[ 3084  621  620  617 ] final -154.37 input   60.00 | X-H torsion

> <Gold.Protein.ActiveResidues>
 HIS54   GLU57   HIS58   ALA61   PHE62   ILE64   ARG65   ASP75   ILE76   ILE77  
 ASP78   ILE79   SER80   PRO81   ILE118  PRO119  ALA120  ALA121  ASN122  LYS124 
 GLN125  CYS126  GLY127  CO701   VAL4    GLU5    SER6    PHE7    GLU8    LEU9   
 HIS11   ARG20   HIS21   CYS22   GLY23   VAL24   HIS25   LYS35   ARG39   MET82  
 GLY83   CYS84   TYR89  

> <Gold.Protein.RotatedAtoms>
  -21.4253   38.2834  -16.0639 H   0  0  0  0  0  0  0  0  0  0  0  0  # atno 2649 bound_to 1223
  -20.9700   37.2150  -17.2463 H   0  0  0  0  0  0  0  0  0  0  0  0  # atno 2650 bound_to 1223
  -18.6978   27.2935  -13.9681 H   0  0  0  0  0  0  0  0  0  0  0  0  # atno 3084 bound_to 621 
  -28.5267   39.3335  -29.0352 H   0  0  0  0  0  0  0  0  0  0  0  0  # atno 3412 bound_to 950 
  -28.7019   38.0450  -28.0075 H   0  0  0  0  0  0  0  0  0  0  0  0  # atno 3413 bound_to 950 
  -27.6019   37.9743  -29.2453 H   0  0  0  0  0  0  0  0  0  0  0  0  # atno 3414 bound_to 950 
  -23.0821   31.8831  -21.2752 H   0  0  0  0  0  0  0  0  0  0  0  0  # atno 3476 bound_to 1244
  -20.4694   31.7746  -18.8638 H   0  0  0  0  0  0  0  0  0  0  0  0  # atno 4380 bound_to 1912
  -24.3973   32.6032  -20.6430 LP  0  0  0  0  0  0  0  0  0  0  0  0  # atno 4866 bound_to 1244
  -23.5178   31.5651  -19.7400 LP  0  0  0  0  0  0  0  0  0  0  0  0  # atno 4867 bound_to 1244
  -20.2341   38.6816  -17.1266 LP  0  0  0  0  0  0  0  0  0  0  0  0  # atno 4874 bound_to 1223
  -21.1557   30.6523  -19.8217 LP  0  0  0  0  0  0  0  0  0  0  0  0  # atno 4875 bound_to 1912
  -19.8101   31.4365  -20.3125 LP  0  0  0  0  0  0  0  0  0  0  0  0  # atno 4876 bound_to 1912
  -18.1699   28.4547  -12.9577 LP  0  0  0  0  0  0  0  0  0  0  0  0  # atno 4881 bound_to 621 
  -19.7154   28.4678  -13.4848 LP  0  0  0  0  0  0  0  0  0  0  0  0  # atno 4882 bound_to 621 

$$$$
Compound 78|Decoys_protonated|sdf|78|dock3
  -GOLD-   6122416173D 1   1.00000     0.00000

 20 21  0  0  0  0  0  0  0  0  1 V2000
  -26.1944   30.1797  -18.2686 N   0  0  0  0  0  0  0  0  0  0  0  0
  -25.6779   31.3028  -17.7295 C   0  0  0  0  0  0  0  0  0  0  0  0
  -25.3898   29.0987  -18.2856 C   0  0  0  0  0  0  0  0  0  0  0  0
  -24.3957   31.3922  -17.2080 C   0  0  0  0  0  0  0  0  0  0  0  0
  -24.0964   29.0919  -17.7858 C   0  0  0  0  0  0  0  0  0  0  0  0
  -23.5817   30.2587  -17.2157 C   0  0  0  0  0  0  0  0  0  0  0  0
  -22.2564   30.2681  -16.7603 N   0  0  0  0  0  0  0  0  0  0  0  0
  -21.5757   31.3208  -16.2620 N   0  0  0  0  0  0  0  0  0  0  0  0
  -21.4306   32.4005  -17.0359 N   0  0  0  0  0  0  0  0  0  0  0  0
  -21.1140   31.4992  -14.9909 C   0  0  0  0  0  0  0  0  0  0  0  0
  -20.7944   33.2717  -16.2483 C   0  0  0  0  0  0  0  0  0  0  0  0
  -20.5712   32.7621  -14.9556 C   0  0  0  0  0  0  0  0  0  0  0  0
  -26.3416   32.1628  -17.7272 H   0  0  0  0  0  0  0  0  0  0  0  0
  -25.8217   28.2067  -18.7301 H   0  0  0  0  0  0  0  0  0  0  0  0
  -24.0609   32.3356  -16.7924 H   0  0  0  0  0  0  0  0  0  0  0  0
  -23.5049   28.1853  -17.8463 H   0  0  0  0  0  0  0  0  0  0  0  0
  -21.8627   29.3912  -16.4513 H   0  0  0  0  0  0  0  0  0  0  0  0
  -21.2078   30.7224  -14.2470 H   0  0  0  0  0  0  0  0  0  0  0  0
  -20.5295   34.2434  -16.6458 H   0  0  0  0  0  0  0  0  0  0  0  0
  -20.0962   33.2495  -14.1163 H   0  0  0  0  0  0  0  0  0  0  0  0
  1  2  2  0  0  0  0
  1  3  1  0  0  0  0
  2  4  1  0  0  0  0
  2 13  1  0  0  0  0
  3  5  2  0  0  0  0
  3 14  1  0  0  0  0
  4  6  2  0  0  0  0
  4 15  1  0  0  0  0
  5  6  1  0  0  0  0
  5 16  1  0  0  0  0
  6  7  1  0  0  0  0
  7  8  1  0  0  0  0
  7 17  1  0  0  0  0
  8  9  1  0  0  0  0
  8 10  1  0  0  0  0
  9 11  2  0  0  0  0
 10 12  2  0  0  0  0
 10 18  1  0  0  0  0
 11 12  1  0  0  0  0
 11 19  1  0  0  0  0
 12 20  1  0  0  0  0
M  END
>  <Column 1>
c1cnn(Nc2ccncc2)c1 ZINC000000010545

>  <Total Molweight>
160.18

>  <cLogP>
0.8271

>  <cLogS>
-2.475

>  <H-Acceptors>
4

>  <H-Donors>
1

>  <Total Surface Area>
131.2

>  <MMFF94 Energy>
-33.624

> <Gold.Version>
5.8.1

> <Gold.Id.Protein>
ID|2FQT|mol2

> <Gold.PLP.Fitness>
41.7274

> <Gold.PLP.PLP>
-29.4460

> <Gold.PLP.part.hbond>
-1.0000

> <Gold.PLP.part.metal>
-1.0000

> <Gold.PLP.part.buried>
-1.6796

> <Gold.PLP.part.nonpolar>
-26.0930

> <Gold.PLP.part.repulsive>
0.0653

> <Gold.PLP.ligand.clash>
0.0000

> <Gold.PLP.ligand.torsion>
0.5924

> <Gold.PLP.Chemscore.Hbond>
1.0000

> <Gold.PLP.Chemscore.CHOScore>
1.4296

> <Gold.PLP.Chemscore.Metal>
0.9951

> <Gold.Chemscore.Hbonds>
donor molecule, donor type, donor heavy atom, donor atom, acceptor molecule, acceptor atom, score
      P1  H  1912  4380       L1     9  1.00
      L1  C     2    13       P1   437  0.43
      L1  C    10    18       P1   611  1.00
      P1  M  1222  1222       L1     1  1.00

> <Gold.PLP.Chemscore.Internal.Correction>
0.2070

> <Gold.Protein.RotatedTorsions>
[ 3412  950  949  948 ] final   73.07 input   60.00 | X-H torsion
[ 3476 1244 1243 1240 ] final   -3.13 input   60.00 | X-H torsion
[ 2649 1223 1224 1225 ] final  -95.07 input   60.00 | X-H torsion
[ 4380 1912 1911 1909 ] final   62.84 input   60.00 | X-H torsion
[ 3084  621  620  617 ] final  179.30 input   60.00 | X-H torsion

> <Gold.Protein.ActiveResidues>
 HIS54   GLU57   HIS58   ALA61   PHE62   ILE64   ARG65   ASP75   ILE76   ILE77  
 ASP78   ILE79   SER80   PRO81   ILE118  PRO119  ALA120  ALA121  ASN122  LYS124 
 GLN125  CYS126  GLY127  CO701   VAL4    GLU5    SER6    PHE7    GLU8    LEU9   
 HIS11   ARG20   HIS21   CYS22   GLY23   VAL24   HIS25   LYS35   ARG39   MET82  
 GLY83   CYS84   TYR89  

> <Gold.Protein.RotatedAtoms>
  -21.4696   37.3412  -16.6167 H   0  0  0  0  0  0  0  0  0  0  0  0  # atno 2649 bound_to 1223
  -20.2541   37.9877  -17.5396 H   0  0  0  0  0  0  0  0  0  0  0  0  # atno 2650 bound_to 1223
  -18.3217   27.3706  -13.7824 H   0  0  0  0  0  0  0  0  0  0  0  0  # atno 3084 bound_to 621 
  -27.9793   37.5678  -28.5453 H   0  0  0  0  0  0  0  0  0  0  0  0  # atno 3412 bound_to 950 
  -27.8937   38.9154  -29.5065 H   0  0  0  0  0  0  0  0  0  0  0  0  # atno 3413 bound_to 950 
  -28.9575   38.8696  -28.2363 H   0  0  0  0  0  0  0  0  0  0  0  0  # atno 3414 bound_to 950 
  -23.7411   32.4270  -21.3925 H   0  0  0  0  0  0  0  0  0  0  0  0  # atno 3476 bound_to 1244
  -20.6145   31.6814  -18.8251 H   0  0  0  0  0  0  0  0  0  0  0  0  # atno 4380 bound_to 1912
  -24.2935   32.2053  -19.8780 LP  0  0  0  0  0  0  0  0  0  0  0  0  # atno 4866 bound_to 1244
  -22.9580   31.4153  -20.3869 LP  0  0  0  0  0  0  0  0  0  0  0  0  # atno 4867 bound_to 1244
  -20.8957   38.8487  -16.2930 LP  0  0  0  0  0  0  0  0  0  0  0  0  # atno 4874 bound_to 1223
  -21.0720   30.6264  -19.9765 LP  0  0  0  0  0  0  0  0  0  0  0  0  # atno 4875 bound_to 1912
  -19.7477   31.5562  -20.1966 LP  0  0  0  0  0  0  0  0  0  0  0  0  # atno 4876 bound_to 1912
  -18.5026   28.7166  -12.8859 LP  0  0  0  0  0  0  0  0  0  0  0  0  # atno 4881 bound_to 621 
  -19.7614   28.1281  -13.7436 LP  0  0  0  0  0  0  0  0  0  0  0  0  # atno 4882 bound_to 621 

$$$$
Compound 79|Decoys_protonated|sdf|79|dock5
  -GOLD-   6122416173D 1   1.00000     0.00000

 31 32  0  0  0  0  0  0  0  0  2 V2000
  -20.2307   33.1646  -17.1595 N   0  0  0  0  0  0  0  0  0  0  0  0
  -20.0067   34.3841  -17.6687 C   0  0  0  0  0  0  0  0  0  0  0  0
  -21.4562   32.8859  -16.6547 C   0  0  0  0  0  0  0  0  0  0  0  0
  -20.9462   35.3355  -17.7089 N   0  0  0  0  0  0  0  0  0  0  0  0
  -18.7467   34.6715  -18.1746 N   0  0  0  0  0  0  0  0  0  0  0  0
  -22.4829   33.8126  -16.6515 C   0  0  0  0  0  0  0  0  0  0  0  0
  -21.6401   31.5058  -16.0928 C   0  0  0  0  0  0  0  0  0  0  0  0
  -22.1576   35.0334  -17.2003 C   0  0  0  0  0  0  0  0  0  0  0  0
  -18.1219   33.6381  -19.0000 C   0  0  0  0  0  0  0  0  0  0  0  0
  -17.9230   35.5930  -17.3923 C   0  0  0  0  0  0  0  0  0  0  0  0
  -23.8435   33.5391  -16.1012 C   0  0  0  0  0  0  0  0  0  0  0  0
  -16.9314   34.2002  -19.7937 C   0  0  0  0  0  0  0  0  0  0  0  0
  -16.7360   36.1188  -18.2157 C   0  0  0  0  0  0  0  0  0  0  0  0
  -16.0129   34.9814  -18.8897 N   0  3  0  0  0  0  0  0  0  0  0  0
  -22.4283   30.9746  -16.6349 H   0  0  0  0  0  0  0  0  0  0  0  0
  -21.8985   31.5571  -15.0307 H   0  0  0  0  0  0  0  0  0  0  0  0
  -20.7175   30.9228  -16.1858 H   0  0  0  0  0  0  0  0  0  0  0  0
  -22.8835   35.8412  -17.2517 H   0  0  0  0  0  0  0  0  0  0  0  0
  -17.7756   32.8197  -18.3564 H   0  0  0  0  0  0  0  0  0  0  0  0
  -18.8218   33.2176  -19.7323 H   0  0  0  0  0  0  0  0  0  0  0  0
  -17.5462   35.0756  -16.5010 H   0  0  0  0  0  0  0  0  0  0  0  0
  -18.4907   36.4697  -17.0580 H   0  0  0  0  0  0  0  0  0  0  0  0
  -24.5003   34.4095  -16.2056 H   0  0  0  0  0  0  0  0  0  0  0  0
  -23.7833   33.2973  -15.0353 H   0  0  0  0  0  0  0  0  0  0  0  0
  -24.3121   32.7069  -16.6359 H   0  0  0  0  0  0  0  0  0  0  0  0
  -17.2604   34.8897  -20.5785 H   0  0  0  0  0  0  0  0  0  0  0  0
  -16.3348   33.3999  -20.2412 H   0  0  0  0  0  0  0  0  0  0  0  0
  -16.0058   36.6318  -17.5831 H   0  0  0  0  0  0  0  0  0  0  0  0
  -17.0664   36.7958  -19.0108 H   0  0  0  0  0  0  0  0  0  0  0  0
  -15.6248   34.3534  -18.1742 H   0  0  0  0  0  0  0  0  0  0  0  0
  -15.2212   35.3472  -19.4326 H   0  0  0  0  0  0  0  0  0  0  0  0
  1  2  2  0  0  0  0
  1  3  1  0  0  0  0
  2  4  1  0  0  0  0
  2  5  1  0  0  0  0
  3  6  2  0  0  0  0
  3  7  1  0  0  0  0
  4  8  2  0  0  0  0
  5  9  1  0  0  0  0
  5 10  1  0  0  0  0
  6 11  1  0  0  0  0
  6  8  1  0  0  0  0
  7 15  1  0  0  0  0
  7 16  1  0  0  0  0
  7 17  1  0  0  0  0
  8 18  1  0  0  0  0
  9 12  1  0  0  0  0
  9 19  1  0  0  0  0
  9 20  1  0  0  0  0
 10 13  1  0  0  0  0
 10 21  1  0  0  0  0
 10 22  1  0  0  0  0
 11 23  1  0  0  0  0
 11 24  1  0  0  0  0
 11 25  1  0  0  0  0
 12 14  1  0  0  0  0
 12 26  1  0  0  0  0
 12 27  1  0  0  0  0
 13 14  1  0  0  0  0
 13 28  1  0  0  0  0
 13 29  1  0  0  0  0
 14 30  1  0  0  0  0
 14 31  1  0  0  0  0
M  CHG  1  14   1
M  END
>  <Column 1>
Cc1cnc(N2CC[NH2+]CC2)nc1C ZINC000000010718

>  <Total Molweight>
193.273

>  <cLogP>
0.4721

>  <cLogS>
-1.562

>  <H-Acceptors>
3

>  <H-Donors>
1

>  <Total Surface Area>
154.88

>  <MMFF94 Energy>
6.9065

> <Gold.Version>
5.8.1

> <Gold.Id.Protein>
ID|2FQT|mol2

> <Gold.PLP.Fitness>
47.8837

> <Gold.PLP.PLP>
-42.1263

> <Gold.PLP.part.hbond>
-3.4666

> <Gold.PLP.part.metal>
0.0000

> <Gold.PLP.part.buried>
-6.3662

> <Gold.PLP.part.nonpolar>
-33.9178

> <Gold.PLP.part.repulsive>
0.1567

> <Gold.PLP.ligand.clash>
0.0000

> <Gold.PLP.ligand.torsion>
1.0265

> <Gold.PLP.Chemscore.Hbond>
2.5447

> <Gold.PLP.Chemscore.CHOScore>
0.0000

> <Gold.PLP.Chemscore.Metal>
0.0000

> <Gold.Chemscore.Hbonds>
donor molecule, donor type, donor heavy atom, donor atom, acceptor molecule, acceptor atom, score
      P1  H  1223  2650       L1     4  1.00
      P1  H  1912  4380       L1     1  0.69
      P1  H  1239  3336       L1     4  0.85

> <Gold.PLP.Chemscore.Internal.Correction>
0.1763

> <Gold.Protein.RotatedTorsions>
[ 3412  950  949  948 ] final -142.71 input   60.00 | X-H torsion
[ 3476 1244 1243 1240 ] final  119.51 input   60.00 | X-H torsion
[ 2649 1223 1224 1225 ] final -158.34 input   60.00 | X-H torsion
[ 4380 1912 1911 1909 ] final   85.91 input   60.00 | X-H torsion
[ 3084  621  620  617 ] final   82.77 input   60.00 | X-H torsion

> <Gold.Protein.ActiveResidues>
 HIS54   GLU57   HIS58   ALA61   PHE62   ILE64   ARG65   ASP75   ILE76   ILE77  
 ASP78   ILE79   SER80   PRO81   ILE118  PRO119  ALA120  ALA121  ASN122  LYS124 
 GLN125  CYS126  GLY127  CO701   VAL4    GLU5    SER6    PHE7    GLU8    LEU9   
 HIS11   ARG20   HIS21   CYS22   GLY23   VAL24   HIS25   LYS35   ARG39   MET82  
 GLY83   CYS84   TYR89  

> <Gold.Protein.RotatedAtoms>
  -21.4701   38.1870  -16.0762 H   0  0  0  0  0  0  0  0  0  0  0  0  # atno 2649 bound_to 1223
  -20.8918   37.2464  -17.3122 H   0  0  0  0  0  0  0  0  0  0  0  0  # atno 2650 bound_to 1223
  -18.2053   28.4839  -12.9461 H   0  0  0  0  0  0  0  0  0  0  0  0  # atno 3084 bound_to 621 
  -28.1591   39.1829  -29.3678 H   0  0  0  0  0  0  0  0  0  0  0  0  # atno 3412 bound_to 950 
  -28.9179   38.5136  -28.0549 H   0  0  0  0  0  0  0  0  0  0  0  0  # atno 3413 bound_to 950 
  -27.7535   37.6564  -28.8653 H   0  0  0  0  0  0  0  0  0  0  0  0  # atno 3414 bound_to 950 
  -22.9769   31.4160  -20.3474 H   0  0  0  0  0  0  0  0  0  0  0  0  # atno 3476 bound_to 1244
  -20.3061   31.8588  -18.9416 H   0  0  0  0  0  0  0  0  0  0  0  0  # atno 4380 bound_to 1912
  -23.7074   32.4067  -21.4118 LP  0  0  0  0  0  0  0  0  0  0  0  0  # atno 4866 bound_to 1244
  -24.3137   32.2320  -19.9056 LP  0  0  0  0  0  0  0  0  0  0  0  0  # atno 4867 bound_to 1244
  -20.2670   38.7456  -17.0495 LP  0  0  0  0  0  0  0  0  0  0  0  0  # atno 4874 bound_to 1223
  -21.2212   30.7088  -19.6403 LP  0  0  0  0  0  0  0  0  0  0  0  0  # atno 4875 bound_to 1912
  -19.9091   31.2952  -20.4156 LP  0  0  0  0  0  0  0  0  0  0  0  0  # atno 4876 bound_to 1912
  -19.7295   28.4337  -13.5141 LP  0  0  0  0  0  0  0  0  0  0  0  0  # atno 4881 bound_to 621 
  -18.6517   27.2899  -13.9576 LP  0  0  0  0  0  0  0  0  0  0  0  0  # atno 4882 bound_to 621 

$$$$
Compound 80|Decoys_protonated|sdf|80|dock5
  -GOLD-   6122416173D 1   1.00000     0.00000

 28 30  0  0  0  0  0  0  0  0  2 V2000
  -21.2586   30.4593  -14.7072 O   0  0  0  0  0  0  0  0  0  0  0  0
  -22.5267   31.0946  -14.7961 C   0  0  2  0  0  0  0  0  0  0  0  0
  -23.0501   30.9706  -16.2416 C   0  0  1  0  0  0  0  0  0  0  0  0
  -22.3678   32.6251  -14.6180 C   0  0  0  0  0  0  0  0  0  0  0  0
  -24.4855   31.5578  -16.3048 C   0  0  2  0  0  0  0  0  0  0  0  0
  -22.2150   32.0483  -16.9203 C   0  0  0  0  0  0  0  0  0  0  0  0
  -22.7215   33.1531  -16.0107 N   0  3  1  0  0  0  0  0  0  0  0  0
  -25.2274   31.1634  -17.5519 C   0  0  0  0  0  0  0  0  0  0  0  0
  -24.2324   33.0798  -16.2381 C   0  0  0  0  0  0  0  0  0  0  0  0
  -25.5280   32.1456  -18.4364 N   0  0  0  0  0  0  0  0  0  0  0  0
  -25.5929   29.8418  -17.7894 C   0  0  0  0  0  0  0  0  0  0  0  0
  -26.1962   31.7559  -19.5521 C   0  0  0  0  0  0  0  0  0  0  0  0
  -26.2626   29.4594  -18.8974 N   0  0  0  0  0  0  0  0  0  0  0  0
  -26.5564   30.4408  -19.7773 C   0  0  0  0  0  0  0  0  0  0  0  0
  -21.0631   30.2711  -13.7685 H   0  0  0  0  0  0  0  0  0  0  0  0
  -23.1942   30.6639  -14.0435 H   0  0  0  0  0  0  0  0  0  0  0  0
  -22.9287   29.9733  -16.6721 H   0  0  0  0  0  0  0  0  0  0  0  0
  -23.0733   33.0611  -13.9054 H   0  0  0  0  0  0  0  0  0  0  0  0
  -21.3422   32.9373  -14.4004 H   0  0  0  0  0  0  0  0  0  0  0  0
  -25.0631   31.2379  -15.4284 H   0  0  0  0  0  0  0  0  0  0  0  0
  -21.1299   31.9636  -16.8015 H   0  0  0  0  0  0  0  0  0  0  0  0
  -22.4625   32.3012  -17.9533 H   0  0  0  0  0  0  0  0  0  0  0  0
  -22.3144   34.0751  -16.2181 H   0  0  0  0  0  0  0  0  0  0  0  0
  -24.4425   33.6267  -17.1629 H   0  0  0  0  0  0  0  0  0  0  0  0
  -24.7279   33.5691  -15.3942 H   0  0  0  0  0  0  0  0  0  0  0  0
  -25.3611   29.0379  -17.0979 H   0  0  0  0  0  0  0  0  0  0  0  0
  -26.4372   32.5356  -20.2668 H   0  0  0  0  0  0  0  0  0  0  0  0
  -27.0909   30.1384  -20.6714 H   0  0  0  0  0  0  0  0  0  0  0  0
  1  2  1  0  0  0  0
  1 15  1  0  0  0  0
  2  3  1  0  0  0  0
  2  4  1  0  0  0  0
  2 16  1  0  0  0  0
  3  5  1  0  0  0  0
  3  6  1  0  0  0  0
  3 17  1  0  0  0  0
  4  7  1  0  0  0  0
  4 18  1  0  0  0  0
  4 19  1  0  0  0  0
  5  8  1  0  0  0  0
  5  9  1  0  0  0  0
  5 20  1  0  0  0  0
  6  7  1  0  0  0  0
  6 21  1  0  0  0  0
  6 22  1  0  0  0  0
  7  9  1  0  0  0  0
  7 23  1  0  0  0  0
  8 10  2  0  0  0  0
  8 11  1  0  0  0  0
  9 24  1  0  0  0  0
  9 25  1  0  0  0  0
 10 12  1  0  0  0  0
 11 13  2  0  0  0  0
 11 26  1  0  0  0  0
 12 14  2  0  0  0  0
 12 27  1  0  0  0  0
 13 14  1  0  0  0  0
 14 28  1  0  0  0  0
M  CHG  1   7   1
M  END
>  <Column 1>
O[C@H]1C[N@H+]2C[C@@H](c3cnccn3)[C@H]1C2 ZINC000000010753

>  <Total Molweight>
192.241

>  <cLogP>
-2.3775

>  <cLogS>
-0.037

>  <H-Acceptors>
3

>  <H-Donors>
2

>  <Total Surface Area>
153.25

>  <MMFF94 Energy>
98.919

> <Gold.Version>
5.8.1

> <Gold.Id.Protein>
ID|2FQT|mol2

> <Gold.PLP.Fitness>
47.7063

> <Gold.PLP.PLP>
-33.0797

> <Gold.PLP.part.hbond>
-2.0000

> <Gold.PLP.part.metal>
-1.0000

> <Gold.PLP.part.buried>
2.5857

> <Gold.PLP.part.nonpolar>
-33.7559

> <Gold.PLP.part.repulsive>
0.0836

> <Gold.PLP.ligand.clash>
0.0000

> <Gold.PLP.ligand.torsion>
0.0453

> <Gold.PLP.Chemscore.Hbond>
1.0000

> <Gold.PLP.Chemscore.CHOScore>
1.9599

> <Gold.PLP.Chemscore.Metal>
0.9693

> <Gold.Chemscore.Hbonds>
donor molecule, donor type, donor heavy atom, donor atom, acceptor molecule, acceptor atom, score
      L1  H     1    15       P1   611  1.00
      L1  C    11    26       P1   426  0.96
      L1  C    12    27       P1   954  1.00
      P1  M  1222  1222       L1    13  0.97

> <Gold.PLP.Chemscore.Internal.Correction>
0.0216

> <Gold.Protein.RotatedTorsions>
[ 3412  950  949  948 ] final  -42.93 input   60.00 | X-H torsion
[ 3476 1244 1243 1240 ] final -123.72 input   60.00 | X-H torsion
[ 2649 1223 1224 1225 ] final  103.86 input   60.00 | X-H torsion
[ 4380 1912 1911 1909 ] final  -38.34 input   60.00 | X-H torsion
[ 3084  621  620  617 ] final   24.27 input   60.00 | X-H torsion

> <Gold.Protein.ActiveResidues>
 HIS54   GLU57   HIS58   ALA61   PHE62   ILE64   ARG65   ASP75   ILE76   ILE77  
 ASP78   ILE79   SER80   PRO81   ILE118  PRO119  ALA120  ALA121  ASN122  LYS124 
 GLN125  CYS126  GLY127  CO701   VAL4    GLU5    SER6    PHE7    GLU8    LEU9   
 HIS11   ARG20   HIS21   CYS22   GLY23   VAL24   HIS25   LYS35   ARG39   MET82  
 GLY83   CYS84   TYR89  

> <Gold.Protein.RotatedAtoms>
  -20.4265   38.9078  -16.7628 H   0  0  0  0  0  0  0  0  0  0  0  0  # atno 2649 bound_to 1223
  -21.5648   37.8491  -16.1879 H   0  0  0  0  0  0  0  0  0  0  0  0  # atno 2650 bound_to 1223
  -19.0453   28.8450  -12.9795 H   0  0  0  0  0  0  0  0  0  0  0  0  # atno 3084 bound_to 621 
  -28.9593   38.8143  -28.1988 H   0  0  0  0  0  0  0  0  0  0  0  0  # atno 3412 bound_to 950 
  -27.9372   37.5717  -28.5970 H   0  0  0  0  0  0  0  0  0  0  0  0  # atno 3413 bound_to 950 
  -27.9341   38.9667  -29.4922 H   0  0  0  0  0  0  0  0  0  0  0  0  # atno 3414 bound_to 950 
  -24.2831   32.1997  -19.8761 H   0  0  0  0  0  0  0  0  0  0  0  0  # atno 3476 bound_to 1244
  -21.1957   30.6886  -19.7023 H   0  0  0  0  0  0  0  0  0  0  0  0  # atno 4380 bound_to 1912
  -22.9548   31.4166  -20.3960 LP  0  0  0  0  0  0  0  0  0  0  0  0  # atno 4866 bound_to 1244
  -23.7509   32.4328  -21.3961 LP  0  0  0  0  0  0  0  0  0  0  0  0  # atno 4867 bound_to 1244
  -20.6322   37.4418  -17.4807 LP  0  0  0  0  0  0  0  0  0  0  0  0  # atno 4874 bound_to 1223
  -19.8715   31.3446  -20.3834 LP  0  0  0  0  0  0  0  0  0  0  0  0  # atno 4875 bound_to 1912
  -20.3629   31.8378  -18.9063 LP  0  0  0  0  0  0  0  0  0  0  0  0  # atno 4876 bound_to 1912
  -19.5368   27.6705  -13.9928 LP  0  0  0  0  0  0  0  0  0  0  0  0  # atno 4881 bound_to 621 
  -17.9985   27.6894  -13.4453 LP  0  0  0  0  0  0  0  0  0  0  0  0  # atno 4882 bound_to 621 

$$$$
Compound 81|Decoys_protonated|sdf|81|dock8
  -GOLD-   6122416173D 1   1.00000     0.00000

 25 27  0  0  0  0  0  0  0  0  1 V2000
  -19.9521   35.5797  -17.0997 O   0  0  0  0  0  0  0  0  0  0  0  0
  -20.0042   35.0794  -18.3997 N   0  0  0  0  0  0  0  0  0  0  0  0
  -18.8291   35.0495  -16.5318 C   0  0  0  0  0  0  0  0  0  0  0  0
  -18.9144   34.3144  -18.4786 C   0  0  0  0  0  0  0  0  0  0  0  0
  -18.1571   34.2695  -17.3487 N   0  0  0  0  0  0  0  0  0  0  0  0
  -18.5288   35.4356  -15.1446 C   0  0  1  0  0  0  0  0  0  0  0  0
  -18.5078   33.6103  -19.5295 N   0  0  0  0  0  0  0  0  0  0  0  0
  -19.5200   36.3810  -14.4873 C   0  0  0  0  0  0  0  0  0  0  0  0
  -18.5355   34.2710  -14.1455 C   0  0  0  0  0  0  0  0  0  0  0  0
  -17.2195   36.2149  -14.9788 C   0  0  0  0  0  0  0  0  0  0  0  0
  -18.7875   36.4433  -13.1913 N   0  0  1  0  0  0  0  0  0  0  0  0
  -18.7004   35.0048  -12.8139 C   0  0  0  0  0  0  0  0  0  0  0  0
  -17.4312   36.8873  -13.6206 C   0  0  0  0  0  0  0  0  0  0  0  0
  -19.0372   33.6138  -20.3892 H   0  0  0  0  0  0  0  0  0  0  0  0
  -17.6639   33.0566  -19.4978 H   0  0  0  0  0  0  0  0  0  0  0  0
  -20.5318   35.9716  -14.3751 H   0  0  0  0  0  0  0  0  0  0  0  0
  -19.5970   37.3666  -14.9633 H   0  0  0  0  0  0  0  0  0  0  0  0
  -17.6120   33.6827  -14.1814 H   0  0  0  0  0  0  0  0  0  0  0  0
  -19.3811   33.5926  -14.3133 H   0  0  0  0  0  0  0  0  0  0  0  0
  -16.3399   35.5618  -14.9843 H   0  0  0  0  0  0  0  0  0  0  0  0
  -17.0894   36.9711  -15.7626 H   0  0  0  0  0  0  0  0  0  0  0  0
  -17.8790   34.8051  -12.1171 H   0  0  0  0  0  0  0  0  0  0  0  0
  -19.6294   34.6974  -12.3193 H   0  0  0  0  0  0  0  0  0  0  0  0
  -16.6558   36.6226  -12.8934 H   0  0  0  0  0  0  0  0  0  0  0  0
  -17.4188   37.9783  -13.7276 H   0  0  0  0  0  0  0  0  0  0  0  0
  1  2  1  0  0  0  0
  1  3  1  0  0  0  0
  2  4  2  0  0  0  0
  3  5  2  0  0  0  0
  4  7  1  0  0  0  0
  4  5  1  0  0  0  0
  6  3  1  0  0  0  0
  6  8  1  0  0  0  0
  6  9  1  0  0  0  0
  6 10  1  0  0  0  0
  7 14  1  0  0  0  0
  7 15  1  0  0  0  0
  8 16  1  0  0  0  0
  8 17  1  0  0  0  0
  9 12  1  0  0  0  0
  9 18  1  0  0  0  0
  9 19  1  0  0  0  0
 10 13  1  0  0  0  0
 10 20  1  0  0  0  0
 10 21  1  0  0  0  0
 11  8  1  0  0  0  0
 11 12  1  0  0  0  0
 11 13  1  0  0  0  0
 12 22  1  0  0  0  0
 12 23  1  0  0  0  0
 13 24  1  0  0  0  0
 13 25  1  0  0  0  0
M  END
>  <Column 1>
Nc1noc(C23CCN(CC2)C3)n1 ZINC000000011110

>  <Total Molweight>
180.21

>  <cLogP>
-0.0969

>  <cLogS>
-1.236

>  <H-Acceptors>
5

>  <H-Donors>
1

>  <Total Surface Area>
131.5

>  <MMFF94 Energy>
-41.192

> <Gold.Version>
5.8.1

> <Gold.Id.Protein>
ID|2FQT|mol2

> <Gold.PLP.Fitness>
41.9508

> <Gold.PLP.PLP>
-30.7893

> <Gold.PLP.part.hbond>
-5.9266

> <Gold.PLP.part.metal>
0.0000

> <Gold.PLP.part.buried>
-6.9088

> <Gold.PLP.part.nonpolar>
-18.8057

> <Gold.PLP.part.repulsive>
0.2884

> <Gold.PLP.ligand.clash>
0.0000

> <Gold.PLP.ligand.torsion>
0.0205

> <Gold.PLP.Chemscore.Hbond>
3.7207

> <Gold.PLP.Chemscore.CHOScore>
0.0000

> <Gold.PLP.Chemscore.Metal>
0.0000

> <Gold.Chemscore.Hbonds>
donor molecule, donor type, donor heavy atom, donor atom, acceptor molecule, acceptor atom, score
      L1  H     7    14       P1  1237  0.82
      P1  H  1223  2650       L1     1  1.00
      P1  H  1239  3336       L1     2  1.00
      P1  H  1466  3954       L1     5  0.90

> <Gold.PLP.Chemscore.Internal.Correction>
0.0404

> <Gold.Protein.RotatedTorsions>
[ 3412  950  949  948 ] final   92.55 input   60.00 | X-H torsion
[ 3476 1244 1243 1240 ] final  118.65 input   60.00 | X-H torsion
[ 2649 1223 1224 1225 ] final -163.53 input   60.00 | X-H torsion
[ 4380 1912 1911 1909 ] final  -60.83 input   60.00 | X-H torsion
[ 3084  621  620  617 ] final   86.00 input   60.00 | X-H torsion

> <Gold.Protein.ActiveResidues>
 HIS54   GLU57   HIS58   ALA61   PHE62   ILE64   ARG65   ASP75   ILE76   ILE77  
 ASP78   ILE79   SER80   PRO81   ILE118  PRO119  ALA120  ALA121  ASN122  LYS124 
 GLN125  CYS126  GLY127  CO701   VAL4    GLU5    SER6    PHE7    GLU8    LEU9   
 HIS11   ARG20   HIS21   CYS22   GLY23   VAL24   HIS25   LYS35   ARG39   MET82  
 GLY83   CYS84   TYR89  

> <Gold.Protein.RotatedAtoms>
  -21.4344   38.2652  -16.0655 H   0  0  0  0  0  0  0  0  0  0  0  0  # atno 2649 bound_to 1223
  -20.9551   37.2202  -17.2594 H   0  0  0  0  0  0  0  0  0  0  0  0  # atno 2650 bound_to 1223
  -18.1716   28.4464  -12.9612 H   0  0  0  0  0  0  0  0  0  0  0  0  # atno 3084 bound_to 621 
  -27.7915   37.6272  -28.8023 H   0  0  0  0  0  0  0  0  0  0  0  0  # atno 3412 bound_to 950 
  -28.1040   39.1395  -29.4044 H   0  0  0  0  0  0  0  0  0  0  0  0  # atno 3413 bound_to 950 
  -28.9350   38.5862  -28.0814 H   0  0  0  0  0  0  0  0  0  0  0  0  # atno 3414 bound_to 950 
  -22.9718   31.4176  -20.3603 H   0  0  0  0  0  0  0  0  0  0  0  0  # atno 3476 bound_to 1244
  -21.0334   30.6260  -20.0232 H   0  0  0  0  0  0  0  0  0  0  0  0  # atno 4380 bound_to 1912
  -23.7189   32.4137  -21.4079 LP  0  0  0  0  0  0  0  0  0  0  0  0  # atno 4866 bound_to 1244
  -24.3073   32.2234  -19.8966 LP  0  0  0  0  0  0  0  0  0  0  0  0  # atno 4867 bound_to 1244
  -20.2398   38.6945  -17.1121 LP  0  0  0  0  0  0  0  0  0  0  0  0  # atno 4874 bound_to 1223
  -19.7323   31.5948  -20.1527 LP  0  0  0  0  0  0  0  0  0  0  0  0  # atno 4875 bound_to 1912
  -20.6655   31.6507  -18.8138 LP  0  0  0  0  0  0  0  0  0  0  0  0  # atno 4876 bound_to 1912
  -19.7134   28.4720  -13.4811 LP  0  0  0  0  0  0  0  0  0  0  0  0  # atno 4881 bound_to 621 
  -18.7017   27.2894  -13.9754 LP  0  0  0  0  0  0  0  0  0  0  0  0  # atno 4882 bound_to 621 

$$$$
Compound 82|Decoys_protonated|sdf|82|dock6
  -GOLD-   6122416183D 1   1.00000     0.00000

 31 32  0  0  0  0  0  0  0  0  1 V2000
  -19.6062   33.7908  -14.3234 O   0  0  0  0  0  0  0  0  0  0  0  0
  -19.2800   34.1161  -15.6171 C   0  0  0  0  0  0  0  0  0  0  0  0
  -18.9688   34.5120  -13.2778 C   0  0  0  0  0  0  0  0  0  0  0  0
  -19.9981   33.4558  -16.6372 C   0  0  0  0  0  0  0  0  0  0  0  0
  -18.3217   35.0853  -15.9535 C   0  0  0  0  0  0  0  0  0  0  0  0
  -21.0064   32.4179  -16.3635 C   0  0  0  0  0  0  0  0  0  0  0  0
  -19.7272   33.8159  -17.9744 C   0  0  0  0  0  0  0  0  0  0  0  0
  -18.0605   35.4177  -17.2867 C   0  0  0  0  0  0  0  0  0  0  0  0
  -21.9521   32.2367  -17.2881 N   0  0  0  0  0  0  0  0  0  0  0  0
  -20.8676   31.6813  -15.2622 N   0  0  0  0  0  0  0  0  0  0  0  0
  -18.7691   34.7813  -18.2988 C   0  0  0  0  0  0  0  0  0  0  0  0
  -17.1008   36.3779  -17.4579 O   0  0  0  0  0  0  0  0  0  0  0  0
  -22.8132   31.2726  -17.0149 C   0  0  0  0  0  0  0  0  0  0  0  0
  -21.7877   30.7487  -15.0994 C   0  0  0  0  0  0  0  0  0  0  0  0
  -16.3555   36.3343  -18.6686 C   0  0  0  0  0  0  0  0  0  0  0  0
  -22.7797   30.5014  -15.9401 N   0  0  0  0  0  0  0  0  0  0  0  0
  -23.8153   31.0533  -17.9166 N   0  0  0  0  0  0  0  0  0  0  0  0
  -21.7040   29.9752  -13.9767 N   0  0  0  0  0  0  0  0  0  0  0  0
  -17.8782   34.4467  -13.3550 H   0  0  0  0  0  0  0  0  0  0  0  0
  -19.2623   34.0530  -12.3287 H   0  0  0  0  0  0  0  0  0  0  0  0
  -19.3044   35.5539  -13.2596 H   0  0  0  0  0  0  0  0  0  0  0  0
  -17.7627   35.6168  -15.1899 H   0  0  0  0  0  0  0  0  0  0  0  0
  -20.2714   33.3269  -18.7822 H   0  0  0  0  0  0  0  0  0  0  0  0
  -18.6070   35.0076  -19.3471 H   0  0  0  0  0  0  0  0  0  0  0  0
  -15.7903   35.3999  -18.7508 H   0  0  0  0  0  0  0  0  0  0  0  0
  -15.6352   37.1579  -18.6473 H   0  0  0  0  0  0  0  0  0  0  0  0
  -17.0051   36.4823  -19.5374 H   0  0  0  0  0  0  0  0  0  0  0  0
  -23.8490   31.6313  -18.7378 H   0  0  0  0  0  0  0  0  0  0  0  0
  -24.5101   30.3629  -17.6926 H   0  0  0  0  0  0  0  0  0  0  0  0
  -20.9537   30.1493  -13.3323 H   0  0  0  0  0  0  0  0  0  0  0  0
  -22.3749   29.2347  -13.8680 H   0  0  0  0  0  0  0  0  0  0  0  0
  1  2  1  0  0  0  0
  1  3  1  0  0  0  0
  2  4  2  0  0  0  0
  2  5  1  0  0  0  0
  3 19  1  0  0  0  0
  3 20  1  0  0  0  0
  3 21  1  0  0  0  0
  4  6  1  0  0  0  0
  4  7  1  0  0  0  0
  5  8  2  0  0  0  0
  5 22  1  0  0  0  0
  6  9  2  0  0  0  0
  6 10  1  0  0  0  0
  7 11  2  0  0  0  0
  7 23  1  0  0  0  0
  8 12  1  0  0  0  0
  8 11  1  0  0  0  0
  9 13  1  0  0  0  0
 10 14  2  0  0  0  0
 11 24  1  0  0  0  0
 12 15  1  0  0  0  0
 13 16  2  0  0  0  0
 13 17  1  0  0  0  0
 14 18  1  0  0  0  0
 14 16  1  0  0  0  0
 15 25  1  0  0  0  0
 15 26  1  0  0  0  0
 15 27  1  0  0  0  0
 17 28  1  0  0  0  0
 17 29  1  0  0  0  0
 18 30  1  0  0  0  0
 18 31  1  0  0  0  0
M  END
>  <Column 1>
COc1ccc(-c2nc(N)nc(N)n2)c(OC)c1 ZINC000000011423

>  <Total Molweight>
247.257

>  <cLogP>
0.8601

>  <cLogS>
-3.864

>  <H-Acceptors>
7

>  <H-Donors>
2

>  <Total Surface Area>
190.86

>  <MMFF94 Energy>
-190.64

> <Gold.Version>
5.8.1

> <Gold.Id.Protein>
ID|2FQT|mol2

> <Gold.PLP.Fitness>
43.2937

> <Gold.PLP.PLP>
-33.6424

> <Gold.PLP.part.hbond>
-3.7939

> <Gold.PLP.part.metal>
0.0000

> <Gold.PLP.part.buried>
-5.3779

> <Gold.PLP.part.nonpolar>
-25.4099

> <Gold.PLP.part.repulsive>
0.9068

> <Gold.PLP.ligand.clash>
0.0000

> <Gold.PLP.ligand.torsion>
0.6967

> <Gold.PLP.Chemscore.Hbond>
3.6620

> <Gold.PLP.Chemscore.CHOScore>
0.0000

> <Gold.PLP.Chemscore.Metal>
0.0000

> <Gold.Chemscore.Hbonds>
donor molecule, donor type, donor heavy atom, donor atom, acceptor molecule, acceptor atom, score
      L1  H    17    28       P1  1244  0.75
      L1  H    18    30       P1   611  0.91
      L1  H    18    31       P1   427  1.00
      P1  H  1912  4380       L1     9  1.00

> <Gold.PLP.Chemscore.Internal.Correction>
0.0586

> <Gold.Protein.RotatedTorsions>
[ 3412  950  949  948 ] final -169.41 input   60.00 | X-H torsion
[ 3476 1244 1243 1240 ] final   69.96 input   60.00 | X-H torsion
[ 2649 1223 1224 1225 ] final  156.17 input   60.00 | X-H torsion
[ 4380 1912 1911 1909 ] final   38.63 input   60.00 | X-H torsion
[ 3084  621  620  617 ] final  118.96 input   60.00 | X-H torsion

> <Gold.Protein.ActiveResidues>
 HIS54   GLU57   HIS58   ALA61   PHE62   ILE64   ARG65   ASP75   ILE76   ILE77  
 ASP78   ILE79   SER80   PRO81   ILE118  PRO119  ALA120  ALA121  ASN122  LYS124 
 GLN125  CYS126  GLY127  CO701   VAL4    GLU5    SER6    PHE7    GLU8    LEU9   
 HIS11   ARG20   HIS21   CYS22   GLY23   VAL24   HIS25   LYS35   ARG39   MET82  
 GLY83   CYS84   TYR89  

> <Gold.Protein.RotatedAtoms>
  -21.0289   38.7705  -16.1884 H   0  0  0  0  0  0  0  0  0  0  0  0  # atno 2649 bound_to 1223
  -21.3864   37.2570  -16.7619 H   0  0  0  0  0  0  0  0  0  0  0  0  # atno 2650 bound_to 1223
  -17.9670   28.0168  -13.1973 H   0  0  0  0  0  0  0  0  0  0  0  0  # atno 3084 bound_to 621 
  -27.8696   38.8825  -29.5135 H   0  0  0  0  0  0  0  0  0  0  0  0  # atno 3412 bound_to 950 
  -28.9548   38.9029  -28.2608 H   0  0  0  0  0  0  0  0  0  0  0  0  # atno 3413 bound_to 950 
  -28.0061   37.5675  -28.5138 H   0  0  0  0  0  0  0  0  0  0  0  0  # atno 3414 bound_to 950 
  -22.9535   31.7036  -21.0770 H   0  0  0  0  0  0  0  0  0  0  0  0  # atno 3476 bound_to 1244
  -20.9139   31.4281  -18.8472 H   0  0  0  0  0  0  0  0  0  0  0  0  # atno 4380 bound_to 1912
  -24.2813   32.6307  -20.9171 LP  0  0  0  0  0  0  0  0  0  0  0  0  # atno 4866 bound_to 1244
  -23.7634   31.7184  -19.6656 LP  0  0  0  0  0  0  0  0  0  0  0  0  # atno 4867 bound_to 1244
  -20.2143   38.1603  -17.4811 LP  0  0  0  0  0  0  0  0  0  0  0  0  # atno 4874 bound_to 1223
  -20.8139   30.6541  -20.2750 LP  0  0  0  0  0  0  0  0  0  0  0  0  # atno 4875 bound_to 1912
  -19.7042   31.7836  -19.8759 LP  0  0  0  0  0  0  0  0  0  0  0  0  # atno 4876 bound_to 1912
  -19.4079   28.7721  -13.1605 LP  0  0  0  0  0  0  0  0  0  0  0  0  # atno 4881 bound_to 621 
  -19.2133   27.4219  -14.0582 LP  0  0  0  0  0  0  0  0  0  0  0  0  # atno 4882 bound_to 621 

$$$$
Compound 83|Decoys_protonated|sdf|83|dock7
  -GOLD-   6122416183D 1   1.00000     0.00000

 27 28  0  0  0  0  0  0  0  0  1 V2000
  -18.8290   36.4881  -16.6214 O   0  0  0  0  0  0  0  0  0  0  0  0
  -18.2624   35.6505  -17.5504 C   0  0  0  0  0  0  0  0  0  0  0  0
  -17.9697   37.3753  -15.9194 C   0  0  0  0  0  0  0  0  0  0  0  0
  -19.0530   34.5659  -17.9938 C   0  0  0  0  0  0  0  0  0  0  0  0
  -16.9861   35.8550  -18.0972 C   0  0  0  0  0  0  0  0  0  0  0  0
  -20.3938   34.2824  -17.4551 C   0  0  0  0  0  0  0  0  0  0  0  0
  -18.5231   33.7237  -18.9961 C   0  0  0  0  0  0  0  0  0  0  0  0
  -16.4837   34.9980  -19.0781 C   0  0  0  0  0  0  0  0  0  0  0  0
  -20.7043   33.0002  -17.2513 N   0  0  0  0  0  0  0  0  0  0  0  0
  -21.1745   35.3141  -17.1367 N   0  0  0  0  0  0  0  0  0  0  0  0
  -17.2521   33.9336  -19.5307 C   0  0  0  0  0  0  0  0  0  0  0  0
  -21.9037   32.7978  -16.7358 C   0  0  0  0  0  0  0  0  0  0  0  0
  -22.3476   34.9853  -16.6285 C   0  0  0  0  0  0  0  0  0  0  0  0
  -22.7636   33.7484  -16.4078 N   0  0  0  0  0  0  0  0  0  0  0  0
  -22.2833   31.5034  -16.5216 N   0  0  0  0  0  0  0  0  0  0  0  0
  -23.1956   36.0044  -16.2998 N   0  0  0  0  0  0  0  0  0  0  0  0
  -17.1539   36.8360  -15.4269 H   0  0  0  0  0  0  0  0  0  0  0  0
  -18.5610   37.8662  -15.1403 H   0  0  0  0  0  0  0  0  0  0  0  0
  -17.5853   38.1554  -16.5843 H   0  0  0  0  0  0  0  0  0  0  0  0
  -16.3606   36.6865  -17.7893 H   0  0  0  0  0  0  0  0  0  0  0  0
  -19.1138   32.8839  -19.3605 H   0  0  0  0  0  0  0  0  0  0  0  0
  -15.4942   35.1697  -19.4941 H   0  0  0  0  0  0  0  0  0  0  0  0
  -16.8678   33.2673  -20.2985 H   0  0  0  0  0  0  0  0  0  0  0  0
  -21.6366   30.7738  -16.7649 H   0  0  0  0  0  0  0  0  0  0  0  0
  -23.2116   31.3332  -16.1775 H   0  0  0  0  0  0  0  0  0  0  0  0
  -22.8907   36.9481  -16.4582 H   0  0  0  0  0  0  0  0  0  0  0  0
  -24.0752   35.7629  -15.8780 H   0  0  0  0  0  0  0  0  0  0  0  0
  1  2  1  0  0  0  0
  1  3  1  0  0  0  0
  2  4  2  0  0  0  0
  2  5  1  0  0  0  0
  3 17  1  0  0  0  0
  3 18  1  0  0  0  0
  3 19  1  0  0  0  0
  4  6  1  0  0  0  0
  4  7  1  0  0  0  0
  5  8  2  0  0  0  0
  5 20  1  0  0  0  0
  6  9  2  0  0  0  0
  6 10  1  0  0  0  0
  7 11  2  0  0  0  0
  7 21  1  0  0  0  0
  8 11  1  0  0  0  0
  8 22  1  0  0  0  0
  9 12  1  0  0  0  0
 10 13  2  0  0  0  0
 11 23  1  0  0  0  0
 12 14  2  0  0  0  0
 12 15  1  0  0  0  0
 13 16  1  0  0  0  0
 13 14  1  0  0  0  0
 15 24  1  0  0  0  0
 15 25  1  0  0  0  0
 16 26  1  0  0  0  0
 16 27  1  0  0  0  0
M  END
>  <Column 1>
COc1ccccc1-c1nc(N)nc(N)n1 ZINC000000011428

>  <Total Molweight>
217.231

>  <cLogP>
0.9301

>  <cLogS>
-3.846

>  <H-Acceptors>
6

>  <H-Donors>
2

>  <Total Surface Area>
168.6

>  <MMFF94 Energy>
-192.61

> <Gold.Version>
5.8.1

> <Gold.Id.Protein>
ID|2FQT|mol2

> <Gold.PLP.Fitness>
46.4637

> <Gold.PLP.PLP>
-41.9762

> <Gold.PLP.part.hbond>
-3.9477

> <Gold.PLP.part.metal>
0.0000

> <Gold.PLP.part.buried>
-7.3700

> <Gold.PLP.part.nonpolar>
-32.3504

> <Gold.PLP.part.repulsive>
0.0851

> <Gold.PLP.ligand.clash>
0.0000

> <Gold.PLP.ligand.torsion>
0.7838

> <Gold.PLP.Chemscore.Hbond>
2.0000

> <Gold.PLP.Chemscore.CHOScore>
0.0000

> <Gold.PLP.Chemscore.Metal>
0.0000

> <Gold.Chemscore.Hbonds>
donor molecule, donor type, donor heavy atom, donor atom, acceptor molecule, acceptor atom, score
      P1  H  1223  2650       L1    10  1.00
      P1  H  1912  4380       L1     9  1.00

> <Gold.PLP.Chemscore.Internal.Correction>
0.0550

> <Gold.Protein.RotatedTorsions>
[ 3412  950  949  948 ] final  -38.15 input   60.00 | X-H torsion
[ 3476 1244 1243 1240 ] final  -32.28 input   60.00 | X-H torsion
[ 2649 1223 1224 1225 ] final  174.33 input   60.00 | X-H torsion
[ 4380 1912 1911 1909 ] final   84.87 input   60.00 | X-H torsion
[ 3084  621  620  617 ] final -160.26 input   60.00 | X-H torsion

> <Gold.Protein.ActiveResidues>
 HIS54   GLU57   HIS58   ALA61   PHE62   ILE64   ARG65   ASP75   ILE76   ILE77  
 ASP78   ILE79   SER80   PRO81   ILE118  PRO119  ALA120  ALA121  ASN122  LYS124 
 GLN125  CYS126  GLY127  CO701   VAL4    GLU5    SER6    PHE7    GLU8    LEU9   
 HIS11   ARG20   HIS21   CYS22   GLY23   VAL24   HIS25   LYS35   ARG39   MET82  
 GLY83   CYS84   TYR89  

> <Gold.Protein.RotatedAtoms>
  -21.2345   38.5727  -16.0889 H   0  0  0  0  0  0  0  0  0  0  0  0  # atno 2649 bound_to 1223
  -21.2118   37.1872  -16.9984 H   0  0  0  0  0  0  0  0  0  0  0  0  # atno 2650 bound_to 1223
  -18.6077   27.2968  -13.9345 H   0  0  0  0  0  0  0  0  0  0  0  0  # atno 3084 bound_to 621 
  -28.9571   38.7460  -28.1578 H   0  0  0  0  0  0  0  0  0  0  0  0  # atno 3412 bound_to 950 
  -27.8891   37.5821  -28.6598 H   0  0  0  0  0  0  0  0  0  0  0  0  # atno 3413 bound_to 950 
  -27.9844   39.0247  -29.4705 H   0  0  0  0  0  0  0  0  0  0  0  0  # atno 3414 bound_to 950 
  -24.1042   32.5958  -21.1442 H   0  0  0  0  0  0  0  0  0  0  0  0  # atno 3476 bound_to 1244
  -20.3198   31.8526  -18.9336 H   0  0  0  0  0  0  0  0  0  0  0  0  # atno 4380 bound_to 1912
  -23.9931   31.8965  -19.6791 LP  0  0  0  0  0  0  0  0  0  0  0  0  # atno 4866 bound_to 1244
  -22.8927   31.5540  -20.8360 LP  0  0  0  0  0  0  0  0  0  0  0  0  # atno 4867 bound_to 1244
  -20.1839   38.4239  -17.3462 LP  0  0  0  0  0  0  0  0  0  0  0  0  # atno 4874 bound_to 1223
  -21.2169   30.7029  -19.6558 LP  0  0  0  0  0  0  0  0  0  0  0  0  # atno 4875 bound_to 1912
  -19.8996   31.3073  -20.4081 LP  0  0  0  0  0  0  0  0  0  0  0  0  # atno 4876 bound_to 1912
  -18.2339   28.5224  -12.9314 LP  0  0  0  0  0  0  0  0  0  0  0  0  # atno 4881 bound_to 621 
  -19.7420   28.3966  -13.5449 LP  0  0  0  0  0  0  0  0  0  0  0  0  # atno 4882 bound_to 621 

$$$$
Compound 84|Decoys_protonated|sdf|84|dock1
  -GOLD-   6122416183D 1   1.00000     0.00000

 31 32  0  0  0  0  0  0  0  0  1 V2000
  -22.2494   35.6520  -16.2017 O   0  0  0  0  0  0  0  0  0  0  0  0
  -22.2384   34.2811  -16.2919 C   0  0  0  0  0  0  0  0  0  0  0  0
  -23.5102   36.2991  -16.1100 C   0  0  0  0  0  0  0  0  0  0  0  0
  -21.1141   33.6368  -15.7437 C   0  0  0  0  0  0  0  0  0  0  0  0
  -23.2569   33.5181  -16.8828 C   0  0  0  0  0  0  0  0  0  0  0  0
  -20.1614   34.4509  -15.1837 O   0  0  0  0  0  0  0  0  0  0  0  0
  -21.0316   32.2447  -15.7977 C   0  0  0  0  0  0  0  0  0  0  0  0
  -23.1920   32.1108  -16.9473 C   0  0  0  0  0  0  0  0  0  0  0  0
  -19.0556   33.8291  -14.5454 C   0  0  0  0  0  0  0  0  0  0  0  0
  -22.0561   31.4973  -16.3907 C   0  0  0  0  0  0  0  0  0  0  0  0
  -24.2716   31.3146  -17.5727 C   0  0  0  0  0  0  0  0  0  0  0  0
  -25.0567   31.9233  -18.4623 N   0  0  0  0  0  0  0  0  0  0  0  0
  -24.3917   30.0380  -17.2072 N   0  0  0  0  0  0  0  0  0  0  0  0
  -26.0016   31.1619  -18.9861 C   0  0  0  0  0  0  0  0  0  0  0  0
  -25.3722   29.3777  -17.7983 C   0  0  0  0  0  0  0  0  0  0  0  0
  -26.2033   29.8885  -18.6913 N   0  0  0  0  0  0  0  0  0  0  0  0
  -26.8345   31.7357  -19.9036 N   0  0  0  0  0  0  0  0  0  0  0  0
  -25.5393   28.0654  -17.4599 N   0  0  0  0  0  0  0  0  0  0  0  0
  -24.1142   36.1169  -17.0050 H   0  0  0  0  0  0  0  0  0  0  0  0
  -23.3290   37.3766  -16.0464 H   0  0  0  0  0  0  0  0  0  0  0  0
  -24.0439   35.9987  -15.2022 H   0  0  0  0  0  0  0  0  0  0  0  0
  -24.1284   34.0072  -17.3084 H   0  0  0  0  0  0  0  0  0  0  0  0
  -20.1847   31.7041  -15.3886 H   0  0  0  0  0  0  0  0  0  0  0  0
  -19.3806   33.2228  -13.6934 H   0  0  0  0  0  0  0  0  0  0  0  0
  -18.4038   34.6193  -14.1606 H   0  0  0  0  0  0  0  0  0  0  0  0
  -18.4722   33.2344  -15.2561 H   0  0  0  0  0  0  0  0  0  0  0  0
  -21.9564   30.4127  -16.4141 H   0  0  0  0  0  0  0  0  0  0  0  0
  -26.6947   32.7023  -20.1387 H   0  0  0  0  0  0  0  0  0  0  0  0
  -27.5568   31.1660  -20.3082 H   0  0  0  0  0  0  0  0  0  0  0  0
  -24.9128   27.6675  -16.7821 H   0  0  0  0  0  0  0  0  0  0  0  0
  -26.2800   27.5487  -17.9000 H   0  0  0  0  0  0  0  0  0  0  0  0
  1  2  1  0  0  0  0
  1  3  1  0  0  0  0
  2  4  2  0  0  0  0
  2  5  1  0  0  0  0
  3 19  1  0  0  0  0
  3 20  1  0  0  0  0
  3 21  1  0  0  0  0
  4  6  1  0  0  0  0
  4  7  1  0  0  0  0
  5  8  2  0  0  0  0
  5 22  1  0  0  0  0
  6  9  1  0  0  0  0
  7 10  2  0  0  0  0
  7 23  1  0  0  0  0
  8 11  1  0  0  0  0
  8 10  1  0  0  0  0
  9 24  1  0  0  0  0
  9 25  1  0  0  0  0
  9 26  1  0  0  0  0
 10 27  1  0  0  0  0
 11 12  2  0  0  0  0
 11 13  1  0  0  0  0
 12 14  1  0  0  0  0
 13 15  2  0  0  0  0
 14 16  2  0  0  0  0
 14 17  1  0  0  0  0
 15 18  1  0  0  0  0
 15 16  1  0  0  0  0
 17 28  1  0  0  0  0
 17 29  1  0  0  0  0
 18 30  1  0  0  0  0
 18 31  1  0  0  0  0
M  END
>  <Column 1>
COc1ccc(-c2nc(N)nc(N)n2)cc1OC ZINC000000011431

>  <Total Molweight>
247.257

>  <cLogP>
0.8601

>  <cLogS>
-3.864

>  <H-Acceptors>
7

>  <H-Donors>
2

>  <Total Surface Area>
190.86

>  <MMFF94 Energy>
-187.65

> <Gold.Version>
5.8.1

> <Gold.Id.Protein>
ID|2FQT|mol2

> <Gold.PLP.Fitness>
47.4783

> <Gold.PLP.PLP>
-36.8030

> <Gold.PLP.part.hbond>
-3.8761

> <Gold.PLP.part.metal>
-1.0000

> <Gold.PLP.part.buried>
-0.6268

> <Gold.PLP.part.nonpolar>
-33.2277

> <Gold.PLP.part.repulsive>
1.3830

> <Gold.PLP.ligand.clash>
0.0000

> <Gold.PLP.ligand.torsion>
0.6146

> <Gold.PLP.Chemscore.Hbond>
1.9937

> <Gold.PLP.Chemscore.CHOScore>
0.0000

> <Gold.PLP.Chemscore.Metal>
0.9865

> <Gold.Chemscore.Hbonds>
donor molecule, donor type, donor heavy atom, donor atom, acceptor molecule, acceptor atom, score
      L1  H    17    28       P1   954  0.20
      P1  H  1244  3476       L1    12  0.94
      P1  H  1223  2649       L1     1  0.85
      P1  M  1222  1222       L1    16  0.99

> <Gold.PLP.Chemscore.Internal.Correction>
0.0042

> <Gold.Protein.RotatedTorsions>
[ 3412  950  949  948 ] final -113.16 input   60.00 | X-H torsion
[ 3476 1244 1243 1240 ] final -145.81 input   60.00 | X-H torsion
[ 2649 1223 1224 1225 ] final  -69.37 input   60.00 | X-H torsion
[ 4380 1912 1911 1909 ] final    4.20 input   60.00 | X-H torsion
[ 3084  621  620  617 ] final  156.35 input   60.00 | X-H torsion

> <Gold.Protein.ActiveResidues>
 HIS54   GLU57   HIS58   ALA61   PHE62   ILE64   ARG65   ASP75   ILE76   ILE77  
 ASP78   ILE79   SER80   PRO81   ILE118  PRO119  ALA120  ALA121  ASN122  LYS124 
 GLN125  CYS126  GLY127  CO701   VAL4    GLU5    SER6    PHE7    GLU8    LEU9   
 HIS11   ARG20   HIS21   CYS22   GLY23   VAL24   HIS25   LYS35   ARG39   MET82  
 GLY83   CYS84   TYR89  

> <Gold.Protein.RotatedAtoms>
  -21.2506   37.1945  -16.9510 H   0  0  0  0  0  0  0  0  0  0  0  0  # atno 2649 bound_to 1223
  -20.1708   38.3750  -17.3839 H   0  0  0  0  0  0  0  0  0  0  0  0  # atno 2650 bound_to 1223
  -18.0830   27.5575  -13.5659 H   0  0  0  0  0  0  0  0  0  0  0  0  # atno 3084 bound_to 621 
  -28.5059   39.3317  -29.0584 H   0  0  0  0  0  0  0  0  0  0  0  0  # atno 3412 bound_to 950 
  -28.7191   38.0708  -28.0039 H   0  0  0  0  0  0  0  0  0  0  0  0  # atno 3413 bound_to 950 
  -27.6056   37.9503  -29.2257 H   0  0  0  0  0  0  0  0  0  0  0  0  # atno 3414 bound_to 950 
  -24.0660   31.9674  -19.7103 H   0  0  0  0  0  0  0  0  0  0  0  0  # atno 3476 bound_to 1244
  -21.1971   31.0375  -19.1195 H   0  0  0  0  0  0  0  0  0  0  0  0  # atno 4380 bound_to 1912
  -22.8901   31.5113  -20.7385 LP  0  0  0  0  0  0  0  0  0  0  0  0  # atno 4866 bound_to 1244
  -24.0342   32.5721  -21.2206 LP  0  0  0  0  0  0  0  0  0  0  0  0  # atno 4867 bound_to 1244
  -21.1935   38.6116  -16.1171 LP  0  0  0  0  0  0  0  0  0  0  0  0  # atno 4874 bound_to 1223
  -20.3590   30.8805  -20.5054 LP  0  0  0  0  0  0  0  0  0  0  0  0  # atno 4875 bound_to 1912
  -19.8740   31.9506  -19.3713 LP  0  0  0  0  0  0  0  0  0  0  0  0  # atno 4876 bound_to 1912
  -18.8560   28.8368  -12.9226 LP  0  0  0  0  0  0  0  0  0  0  0  0  # atno 4881 bound_to 621 
  -19.6484   27.8197  -13.9248 LP  0  0  0  0  0  0  0  0  0  0  0  0  # atno 4882 bound_to 621 

$$$$
Compound 85|Decoys_protonated|sdf|85|dock4
  -GOLD-   6122416183D 1   1.00000     0.00000

 28 30  0  0  0  0  0  0  0  0  1 V2000
  -26.1968   30.0262  -17.8033 O   0  0  0  0  0  0  0  0  0  0  0  0
  -26.5190   29.9653  -19.1590 N   0  0  0  0  0  0  0  0  0  0  0  0
  -25.6243   31.2483  -17.6059 C   0  0  0  0  0  0  0  0  0  0  0  0
  -26.1140   31.1486  -19.6240 C   0  0  0  0  0  0  0  0  0  0  0  0
  -25.5563   31.9750  -18.6972 N   0  0  0  0  0  0  0  0  0  0  0  0
  -25.1802   31.5663  -16.2283 C   0  0  0  0  0  0  0  0  0  0  0  0
  -26.2005   31.5853  -20.8759 N   0  0  0  0  0  0  0  0  0  0  0  0
  -23.7786   32.1569  -16.1558 C   0  0  2  0  0  0  0  0  0  0  0  0
  -22.6929   31.4778  -16.9798 C   0  0  0  0  0  0  0  0  0  0  0  0
  -23.1685   32.0582  -14.7434 C   0  0  0  0  0  0  0  0  0  0  0  0
  -23.6369   33.6159  -16.6254 C   0  0  0  0  0  0  0  0  0  0  0  0
  -21.6041   32.3749  -16.5061 N   0  0  2  0  0  0  0  0  0  0  0  0
  -21.6760   32.2217  -15.0294 C   0  0  0  0  0  0  0  0  0  0  0  0
  -22.1275   33.7247  -16.8534 C   0  0  0  0  0  0  0  0  0  0  0  0
  -25.8957   32.2675  -15.7814 H   0  0  0  0  0  0  0  0  0  0  0  0
  -25.2307   30.6508  -15.6252 H   0  0  0  0  0  0  0  0  0  0  0  0
  -26.6058   31.0066  -21.5972 H   0  0  0  0  0  0  0  0  0  0  0  0
  -25.8660   32.5012  -21.1380 H   0  0  0  0  0  0  0  0  0  0  0  0
  -22.8316   31.5455  -18.0652 H   0  0  0  0  0  0  0  0  0  0  0  0
  -22.5131   30.4300  -16.7108 H   0  0  0  0  0  0  0  0  0  0  0  0
  -23.3603   31.0793  -14.2882 H   0  0  0  0  0  0  0  0  0  0  0  0
  -23.5480   32.8345  -14.0707 H   0  0  0  0  0  0  0  0  0  0  0  0
  -24.1670   33.8070  -17.5642 H   0  0  0  0  0  0  0  0  0  0  0  0
  -23.9927   34.3299  -15.8752 H   0  0  0  0  0  0  0  0  0  0  0  0
  -21.2337   33.0709  -14.4966 H   0  0  0  0  0  0  0  0  0  0  0  0
  -21.1261   31.3237  -14.7242 H   0  0  0  0  0  0  0  0  0  0  0  0
  -21.6662   34.5198  -16.2572 H   0  0  0  0  0  0  0  0  0  0  0  0
  -21.9136   33.9416  -17.9067 H   0  0  0  0  0  0  0  0  0  0  0  0
  1  2  1  0  0  0  0
  1  3  1  0  0  0  0
  2  4  2  0  0  0  0
  3  5  2  0  0  0  0
  3  6  1  0  0  0  0
  4  7  1  0  0  0  0
  4  5  1  0  0  0  0
  6 15  1  0  0  0  0
  6 16  1  0  0  0  0
  7 17  1  0  0  0  0
  7 18  1  0  0  0  0
  8  6  1  0  0  0  0
  8  9  1  0  0  0  0
  8 10  1  0  0  0  0
  8 11  1  0  0  0  0
  9 19  1  0  0  0  0
  9 20  1  0  0  0  0
 10 13  1  0  0  0  0
 10 21  1  0  0  0  0
 10 22  1  0  0  0  0
 11 14  1  0  0  0  0
 11 23  1  0  0  0  0
 11 24  1  0  0  0  0
 12  9  1  0  0  0  0
 12 13  1  0  0  0  0
 12 14  1  0  0  0  0
 13 25  1  0  0  0  0
 13 26  1  0  0  0  0
 14 27  1  0  0  0  0
 14 28  1  0  0  0  0
M  END
>  <Column 1>
Nc1noc(CC23CCN(CC2)C3)n1 ZINC000000011896

>  <Total Molweight>
194.237

>  <cLogP>
0.4294

>  <cLogS>
-1.186

>  <H-Acceptors>
5

>  <H-Donors>
1

>  <Total Surface Area>
145.26

>  <MMFF94 Energy>
-39.926

> <Gold.Version>
5.8.1

> <Gold.Id.Protein>
ID|2FQT|mol2

> <Gold.PLP.Fitness>
50.4972

> <Gold.PLP.PLP>
-36.2964

> <Gold.PLP.part.hbond>
-4.0000

> <Gold.PLP.part.metal>
-2.0000

> <Gold.PLP.part.buried>
-2.8302

> <Gold.PLP.part.nonpolar>
-28.0337

> <Gold.PLP.part.repulsive>
0.4628

> <Gold.PLP.ligand.clash>
0.0000

> <Gold.PLP.ligand.torsion>
0.3281

> <Gold.PLP.Chemscore.Hbond>
0.9600

> <Gold.PLP.Chemscore.CHOScore>
0.0000

> <Gold.PLP.Chemscore.Metal>
1.9951

> <Gold.Chemscore.Hbonds>
donor molecule, donor type, donor heavy atom, donor atom, acceptor molecule, acceptor atom, score
      L1  H     7    17       P1  1290  0.56
      P1  H  1244  3476       L1     5  0.40
      P1  M  1222  1222       L1     1  1.00
      P1  M  1222  1222       L1     2  1.00

> <Gold.PLP.Chemscore.Internal.Correction>
0.0065

> <Gold.Protein.RotatedTorsions>
[ 3412  950  949  948 ] final   70.30 input   60.00 | X-H torsion
[ 3476 1244 1243 1240 ] final -149.51 input   60.00 | X-H torsion
[ 2649 1223 1224 1225 ] final   70.86 input   60.00 | X-H torsion
[ 4380 1912 1911 1909 ] final  -47.57 input   60.00 | X-H torsion
[ 3084  621  620  617 ] final -158.83 input   60.00 | X-H torsion

> <Gold.Protein.ActiveResidues>
 HIS54   GLU57   HIS58   ALA61   PHE62   ILE64   ARG65   ASP75   ILE76   ILE77  
 ASP78   ILE79   SER80   PRO81   ILE118  PRO119  ALA120  ALA121  ASN122  LYS124 
 GLN125  CYS126  GLY127  CO701   VAL4    GLU5    SER6    PHE7    GLU8    LEU9   
 HIS11   ARG20   HIS21   CYS22   GLY23   VAL24   HIS25   LYS35   ARG39   MET82  
 GLY83   CYS84   TYR89  

> <Gold.Protein.RotatedAtoms>
  -20.2029   38.6399  -17.1794 H   0  0  0  0  0  0  0  0  0  0  0  0  # atno 2649 bound_to 1223
  -21.3906   38.3479  -16.0608 H   0  0  0  0  0  0  0  0  0  0  0  0  # atno 2650 bound_to 1223
  -18.6294   27.2952  -13.9431 H   0  0  0  0  0  0  0  0  0  0  0  0  # atno 3084 bound_to 621 
  -28.0094   37.5676  -28.5101 H   0  0  0  0  0  0  0  0  0  0  0  0  # atno 3412 bound_to 950 
  -27.8668   38.8785  -29.5143 H   0  0  0  0  0  0  0  0  0  0  0  0  # atno 3413 bound_to 950 
  -28.9543   38.9068  -28.2637 H   0  0  0  0  0  0  0  0  0  0  0  0  # atno 3414 bound_to 950 
  -24.0228   31.9282  -19.6942 H   0  0  0  0  0  0  0  0  0  0  0  0  # atno 3476 bound_to 1244
  -21.1412   30.6510  -19.8376 H   0  0  0  0  0  0  0  0  0  0  0  0  # atno 4380 bound_to 1912
  -22.8904   31.5350  -20.7946 LP  0  0  0  0  0  0  0  0  0  0  0  0  # atno 4866 bound_to 1244
  -24.0774   32.5878  -21.1807 LP  0  0  0  0  0  0  0  0  0  0  0  0  # atno 4867 bound_to 1244
  -21.0240   37.2143  -17.1955 LP  0  0  0  0  0  0  0  0  0  0  0  0  # atno 4874 bound_to 1223
  -19.8016   31.4506  -20.3003 LP  0  0  0  0  0  0  0  0  0  0  0  0  # atno 4875 bound_to 1912
  -20.4876   31.7698  -18.8532 LP  0  0  0  0  0  0  0  0  0  0  0  0  # atno 4876 bound_to 1912
  -18.2177   28.5064  -12.9373 LP  0  0  0  0  0  0  0  0  0  0  0  0  # atno 4881 bound_to 621 
  -19.7364   28.4143  -13.5303 LP  0  0  0  0  0  0  0  0  0  0  0  0  # atno 4882 bound_to 621 

$$$$
Compound 86|Decoys_protonated|sdf|86|dock8
  -GOLD-   6122416183D 1   1.00000     0.00000

 29 30  0  0  0  0  0  0  0  0  3 V2000
  -19.0430   34.5010  -17.9185 O   0  0  0  0  0  0  0  0  0  0  0  0
  -20.1802   34.5212  -17.4310 N   0  3  0  0  0  0  0  0  0  0  0  0
  -21.0883   35.2894  -17.7785 O   0  5  0  0  0  0  0  0  0  0  0  0
  -20.4736   33.5668  -16.3922 C   0  0  0  0  0  0  0  0  0  0  0  0
  -19.5309   32.9366  -15.7144 N   0  0  0  0  0  0  0  0  0  0  0  0
  -21.7298   33.1912  -15.9879 N   0  0  0  0  0  0  0  0  0  0  0  0
  -20.1992   32.1344  -14.8292 C   0  0  0  0  0  0  0  0  0  0  0  0
  -21.5594   32.2706  -14.9785 C   0  0  0  0  0  0  0  0  0  0  0  0
  -23.0310   33.5916  -16.4957 C   0  0  0  0  0  0  0  0  0  0  0  0
  -24.1742   33.0845  -15.6198 C   0  0  0  0  0  0  0  0  0  0  0  0
  -25.2375   32.3347  -16.4227 C   0  0  0  0  0  0  0  0  0  0  0  0
  -24.7335   31.1350  -17.0605 N   0  0  0  0  0  0  0  0  0  0  0  0
  -25.3984   30.4494  -18.0487 C   0  0  0  0  0  0  0  0  0  0  0  0
  -23.4102   30.6212  -16.8991 C   0  0  0  0  0  0  0  0  0  0  0  0
  -26.4992   30.7200  -18.4982 O   0  0  0  0  0  0  0  0  0  0  0  0
  -24.6317   29.4024  -18.4780 O   0  0  0  0  0  0  0  0  0  0  0  0
  -23.4944   29.2934  -17.6136 C   0  0  0  0  0  0  0  0  0  0  0  0
  -19.6667   31.4986  -14.1322 H   0  0  0  0  0  0  0  0  0  0  0  0
  -22.3914   31.8040  -14.4680 H   0  0  0  0  0  0  0  0  0  0  0  0
  -23.0351   34.6753  -16.6273 H   0  0  0  0  0  0  0  0  0  0  0  0
  -23.1231   33.1687  -17.5044 H   0  0  0  0  0  0  0  0  0  0  0  0
  -24.6259   33.9060  -15.0511 H   0  0  0  0  0  0  0  0  0  0  0  0
  -23.7516   32.3936  -14.8784 H   0  0  0  0  0  0  0  0  0  0  0  0
  -25.5830   32.9988  -17.2243 H   0  0  0  0  0  0  0  0  0  0  0  0
  -26.1098   32.0750  -15.8137 H   0  0  0  0  0  0  0  0  0  0  0  0
  -23.1438   30.5190  -15.8439 H   0  0  0  0  0  0  0  0  0  0  0  0
  -22.7031   31.2890  -17.3963 H   0  0  0  0  0  0  0  0  0  0  0  0
  -23.6699   28.4642  -16.9200 H   0  0  0  0  0  0  0  0  0  0  0  0
  -22.5958   29.0805  -18.1998 H   0  0  0  0  0  0  0  0  0  0  0  0
  1  2  2  0  0  0  0
  2  3  1  0  0  0  0
  2  4  1  0  0  0  0
  4  5  2  0  0  0  0
  4  6  1  0  0  0  0
  5  7  1  0  0  0  0
  6  8  1  0  0  0  0
  6  9  1  0  0  0  0
  7  8  2  0  0  0  0
  7 18  1  0  0  0  0
  8 19  1  0  0  0  0
  9 10  1  0  0  0  0
  9 20  1  0  0  0  0
  9 21  1  0  0  0  0
 10 11  1  0  0  0  0
 10 22  1  0  0  0  0
 10 23  1  0  0  0  0
 11 12  1  0  0  0  0
 11 24  1  0  0  0  0
 11 25  1  0  0  0  0
 12 13  1  0  0  0  0
 12 14  1  0  0  0  0
 13 15  2  0  0  0  0
 13 16  1  0  0  0  0
 14 17  1  0  0  0  0
 14 26  1  0  0  0  0
 14 27  1  0  0  0  0
 16 17  1  0  0  0  0
 17 28  1  0  0  0  0
 17 29  1  0  0  0  0
M  CHG  1   2   1
M  CHG  1   3  -1
M  END
>  <Column 1>
O=C1OCCN1CCCn1ccnc1[N+](=O)[O-] ZINC000000012332

>  <Total Molweight>
240.218

>  <cLogP>
-0.6131

>  <cLogS>
-0.966

>  <H-Acceptors>
7

>  <H-Donors>
0

>  <Total Surface Area>
178.24

>  <MMFF94 Energy>
21.781

> <Gold.Version>
5.8.1

> <Gold.Id.Protein>
ID|2FQT|mol2

> <Gold.PLP.Fitness>
62.1674

> <Gold.PLP.PLP>
-47.1052

> <Gold.PLP.part.hbond>
-2.6478

> <Gold.PLP.part.metal>
-1.0000

> <Gold.PLP.part.buried>
-8.5206

> <Gold.PLP.part.nonpolar>
-36.8739

> <Gold.PLP.part.repulsive>
0.3138

> <Gold.PLP.ligand.clash>
0.0000

> <Gold.PLP.ligand.torsion>
0.6851

> <Gold.PLP.Chemscore.Hbond>
2.0000

> <Gold.PLP.Chemscore.CHOScore>
1.4225

> <Gold.PLP.Chemscore.Metal>
1.0000

> <Gold.Chemscore.Hbonds>
donor molecule, donor type, donor heavy atom, donor atom, acceptor molecule, acceptor atom, score
      P1  H  1223  2650       L1     3  1.00
      P1  H  1239  3336       L1     3  1.00
      L1  C     7    18       P1   611  0.70
      L1  C     7    18       P1   606  0.73
      P1  M  1222  1222       L1    15  1.00

> <Gold.PLP.Chemscore.Internal.Correction>
0.1649

> <Gold.Protein.RotatedTorsions>
[ 3412  950  949  948 ] final -144.72 input   60.00 | X-H torsion
[ 3476 1244 1243 1240 ] final   23.74 input   60.00 | X-H torsion
[ 2649 1223 1224 1225 ] final -164.52 input   60.00 | X-H torsion
[ 4380 1912 1911 1909 ] final  -41.40 input   60.00 | X-H torsion
[ 3084  621  620  617 ] final   84.33 input   60.00 | X-H torsion

> <Gold.Protein.ActiveResidues>
 HIS54   GLU57   HIS58   ALA61   PHE62   ILE64   ARG65   ASP75   ILE76   ILE77  
 ASP78   ILE79   SER80   PRO81   ILE118  PRO119  ALA120  ALA121  ASN122  LYS124 
 GLN125  CYS126  GLY127  CO701   VAL4    GLU5    SER6    PHE7    GLU8    LEU9   
 HIS11   ARG20   HIS21   CYS22   GLY23   VAL24   HIS25   LYS35   ARG39   MET82  
 GLY83   CYS84   TYR89  

> <Gold.Protein.RotatedAtoms>
  -21.4270   38.2800  -16.0642 H   0  0  0  0  0  0  0  0  0  0  0  0  # atno 2649 bound_to 1223
  -20.9672   37.2159  -17.2488 H   0  0  0  0  0  0  0  0  0  0  0  0  # atno 2650 bound_to 1223
  -18.1887   28.4659  -12.9532 H   0  0  0  0  0  0  0  0  0  0  0  0  # atno 3084 bound_to 621 
  -28.1356   39.1650  -29.3838 H   0  0  0  0  0  0  0  0  0  0  0  0  # atno 3412 bound_to 950 
  -28.9258   38.5445  -28.0656 H   0  0  0  0  0  0  0  0  0  0  0  0  # atno 3413 bound_to 950 
  -27.7692   37.6433  -28.8387 H   0  0  0  0  0  0  0  0  0  0  0  0  # atno 3414 bound_to 950 
  -23.3867   32.1781  -21.4338 H   0  0  0  0  0  0  0  0  0  0  0  0  # atno 3476 bound_to 1244
  -21.1797   30.6743  -19.7473 H   0  0  0  0  0  0  0  0  0  0  0  0  # atno 4380 bound_to 1912
  -24.4305   32.4492  -20.2153 LP  0  0  0  0  0  0  0  0  0  0  0  0  # atno 4866 bound_to 1244
  -23.1780   31.4220  -20.0081 LP  0  0  0  0  0  0  0  0  0  0  0  0  # atno 4867 bound_to 1244
  -20.2351   38.6840  -17.1239 LP  0  0  0  0  0  0  0  0  0  0  0  0  # atno 4874 bound_to 1223
  -19.8465   31.3800  -20.3579 LP  0  0  0  0  0  0  0  0  0  0  0  0  # atno 4875 bound_to 1912
  -20.4040   31.8168  -18.8865 LP  0  0  0  0  0  0  0  0  0  0  0  0  # atno 4876 bound_to 1912
  -19.7221   28.4524  -13.4981 LP  0  0  0  0  0  0  0  0  0  0  0  0  # atno 4881 bound_to 621 
  -18.6758   27.2893  -13.9664 LP  0  0  0  0  0  0  0  0  0  0  0  0  # atno 4882 bound_to 621 

$$$$
Compound 87|Decoys_protonated|sdf|87|dock10
  -GOLD-   6122416183D 1   1.00000     0.00000

 27 29  0  0  0  0  0  0  0  0  1 V2000
  -15.7317   35.5088  -19.8536 Cl  0  0  0  0  0  0  0  0  0  0  0  0
  -16.9269   35.0973  -18.6854 C   0  0  0  0  0  0  0  0  0  0  0  0
  -16.9086   35.7125  -17.4373 C   0  0  0  0  0  0  0  0  0  0  0  0
  -17.9069   34.1410  -19.0091 C   0  0  0  0  0  0  0  0  0  0  0  0
  -17.8922   35.3395  -16.5411 C   0  0  0  0  0  0  0  0  0  0  0  0
  -18.8939   33.7818  -18.0823 C   0  0  0  0  0  0  0  0  0  0  0  0
  -18.1012   35.8212  -15.1734 C   0  0  0  0  0  0  0  0  0  0  0  0
  -18.8773   34.3942  -16.8371 C   0  0  0  0  0  0  0  0  0  0  0  0
  -17.4167   36.6643  -14.6290 O   0  0  0  0  0  0  0  0  0  0  0  0
  -19.1906   35.1340  -14.6670 N   0  0  0  0  0  0  0  0  0  0  0  0
  -19.7970   34.2249  -15.6474 C   0  0  1  0  0  0  0  0  0  0  0  0
  -19.7858   35.4426  -13.3832 C   0  0  0  0  0  0  0  0  0  0  0  0
  -21.2378   34.5976  -16.0093 C   0  0  0  0  0  0  0  0  0  0  0  0
  -19.8964   32.7714  -15.1796 C   0  0  0  0  0  0  0  0  0  0  0  0
  -21.6706   35.7018  -16.2982 O   0  0  0  0  0  0  0  0  0  0  0  0
  -21.9836   33.4615  -15.9850 N   0  0  0  0  0  0  0  0  0  0  0  0
  -21.2872   32.3720  -15.5812 C   0  0  0  0  0  0  0  0  0  0  0  0
  -21.7353   31.2388  -15.5278 O   0  0  0  0  0  0  0  0  0  0  0  0
  -16.1626   36.4528  -17.1689 H   0  0  0  0  0  0  0  0  0  0  0  0
  -17.9017   33.6750  -19.9930 H   0  0  0  0  0  0  0  0  0  0  0  0
  -19.6453   33.0450  -18.3520 H   0  0  0  0  0  0  0  0  0  0  0  0
  -20.7529   35.9259  -13.5447 H   0  0  0  0  0  0  0  0  0  0  0  0
  -19.1435   36.1223  -12.8168 H   0  0  0  0  0  0  0  0  0  0  0  0
  -19.9248   34.5224  -12.8120 H   0  0  0  0  0  0  0  0  0  0  0  0
  -19.1694   32.1058  -15.6556 H   0  0  0  0  0  0  0  0  0  0  0  0
  -19.8153   32.6631  -14.0940 H   0  0  0  0  0  0  0  0  0  0  0  0
  -22.9586   33.4344  -16.2417 H   0  0  0  0  0  0  0  0  0  0  0  0
  1  2  1  0  0  0  0
  2  3  2  0  0  0  0
  2  4  1  0  0  0  0
  3  5  1  0  0  0  0
  3 19  1  0  0  0  0
  4  6  2  0  0  0  0
  4 20  1  0  0  0  0
  5  7  1  0  0  0  0
  5  8  2  0  0  0  0
  6  8  1  0  0  0  0
  6 21  1  0  0  0  0
  7  9  2  0  0  0  0
  7 10  1  0  0  0  0
 10 12  1  0  0  0  0
 10 11  1  0  0  0  0
 11  8  1  0  0  0  0
 11 13  1  0  0  0  0
 11 14  1  0  0  0  0
 12 22  1  0  0  0  0
 12 23  1  0  0  0  0
 12 24  1  0  0  0  0
 13 15  2  0  0  0  0
 13 16  1  0  0  0  0
 14 17  1  0  0  0  0
 14 25  1  0  0  0  0
 14 26  1  0  0  0  0
 16 17  1  0  0  0  0
 16 27  1  0  0  0  0
 17 18  2  0  0  0  0
M  END
>  <Column 1>
CN1C(=O)c2cc(Cl)ccc2[C@@]12CC(=O)NC2=O ZINC000000012729

>  <Total Molweight>
264.667

>  <cLogP>
0.607

>  <cLogS>
-2.282

>  <H-Acceptors>
5

>  <H-Donors>
1

>  <Total Surface Area>
173.12

>  <MMFF94 Energy>
-8.6653

> <Gold.Version>
5.8.1

> <Gold.Id.Protein>
ID|2FQT|mol2

> <Gold.PLP.Fitness>
40.5449

> <Gold.PLP.PLP>
-37.5449

> <Gold.PLP.part.hbond>
-1.0000

> <Gold.PLP.part.metal>
0.0000

> <Gold.PLP.part.buried>
-6.0606

> <Gold.PLP.part.nonpolar>
-30.9820

> <Gold.PLP.part.repulsive>
0.2247

> <Gold.PLP.ligand.clash>
0.0000

> <Gold.PLP.ligand.torsion>
0.0000

> <Gold.PLP.Chemscore.Hbond>
1.0000

> <Gold.PLP.Chemscore.CHOScore>
0.0000

> <Gold.PLP.Chemscore.Metal>
0.0000

> <Gold.Chemscore.Hbonds>
donor molecule, donor type, donor heavy atom, donor atom, acceptor molecule, acceptor atom, score
      P1  H  1223  2649       L1    15  1.00

> <Gold.PLP.Chemscore.Internal.Correction>
0.0000

> <Gold.Protein.RotatedTorsions>
[ 3412  950  949  948 ] final  -11.16 input   60.00 | X-H torsion
[ 3476 1244 1243 1240 ] final -117.48 input   60.00 | X-H torsion
[ 2649 1223 1224 1225 ] final  -80.52 input   60.00 | X-H torsion
[ 4380 1912 1911 1909 ] final  151.31 input   60.00 | X-H torsion
[ 3084  621  620  617 ] final  -93.48 input   60.00 | X-H torsion

> <Gold.Protein.ActiveResidues>
 HIS54   GLU57   HIS58   ALA61   PHE62   ILE64   ARG65   ASP75   ILE76   ILE77  
 ASP78   ILE79   SER80   PRO81   ILE118  PRO119  ALA120  ALA121  ASN122  LYS124 
 GLN125  CYS126  GLY127  CO701   VAL4    GLU5    SER6    PHE7    GLU8    LEU9   
 HIS11   ARG20   HIS21   CYS22   GLY23   VAL24   HIS25   LYS35   ARG39   MET82  
 GLY83   CYS84   TYR89  

> <Gold.Protein.RotatedAtoms>
  -21.3579   37.2380  -16.8054 H   0  0  0  0  0  0  0  0  0  0  0  0  # atno 2649 bound_to 1223
  -20.1903   38.2101  -17.4678 H   0  0  0  0  0  0  0  0  0  0  0  0  # atno 2650 bound_to 1223
  -19.5558   27.6984  -13.9764 H   0  0  0  0  0  0  0  0  0  0  0  0  # atno 3084 bound_to 621 
  -28.8580   38.3359  -28.0112 H   0  0  0  0  0  0  0  0  0  0  0  0  # atno 3412 bound_to 950 
  -27.6764   37.7498  -29.0150 H   0  0  0  0  0  0  0  0  0  0  0  0  # atno 3413 bound_to 950 
  -28.2961   39.2671  -29.2619 H   0  0  0  0  0  0  0  0  0  0  0  0  # atno 3414 bound_to 950 
  -24.3290   32.2620  -19.9424 H   0  0  0  0  0  0  0  0  0  0  0  0  # atno 3476 bound_to 1244
  -19.7222   31.8312  -19.7671 H   0  0  0  0  0  0  0  0  0  0  0  0  # atno 4380 bound_to 1912
  -22.9927   31.4055  -20.3013 LP  0  0  0  0  0  0  0  0  0  0  0  0  # atno 4866 bound_to 1244
  -23.6667   32.3812  -21.4240 LP  0  0  0  0  0  0  0  0  0  0  0  0  # atno 4867 bound_to 1244
  -21.0687   38.7311  -16.1779 LP  0  0  0  0  0  0  0  0  0  0  0  0  # atno 4874 bound_to 1223
  -20.9964   31.3466  -18.8785 LP  0  0  0  0  0  0  0  0  0  0  0  0  # atno 4875 bound_to 1912
  -20.7219   30.6852  -20.3461 LP  0  0  0  0  0  0  0  0  0  0  0  0  # atno 4876 bound_to 1912
  -18.0103   27.6630  -13.4682 LP  0  0  0  0  0  0  0  0  0  0  0  0  # atno 4881 bound_to 621 
  -19.0110   28.8516  -12.9658 LP  0  0  0  0  0  0  0  0  0  0  0  0  # atno 4882 bound_to 621 

$$$$
Compound 88|Decoys_protonated|sdf|88|dock1
  -GOLD-   6122416183D 1   1.00000     0.00000

 22 23  0  0  0  0  0  0  0  0  1 V2000
  -23.3962   35.9772  -16.4165 O   0  0  0  0  0  0  0  0  0  0  0  0
  -22.5685   35.0978  -16.6229 C   0  0  0  0  0  0  0  0  0  0  0  0
  -21.2994   35.3988  -17.0592 N   0  0  0  0  0  0  0  0  0  0  0  0
  -22.8372   33.6583  -16.4224 C   0  0  0  0  0  0  0  0  0  0  0  0
  -20.3273   34.4579  -17.2856 C   0  0  0  0  0  0  0  0  0  0  0  0
  -24.0664   33.2581  -15.9970 N   0  0  0  0  0  0  0  0  0  0  0  0
  -21.7843   32.7842  -16.6848 C   0  0  0  0  0  0  0  0  0  0  0  0
  -20.5154   33.1901  -17.1236 N   0  0  0  0  0  0  0  0  0  0  0  0
  -18.9974   35.0068  -17.7774 C   0  0  0  0  0  0  0  0  0  0  0  0
  -24.1945   31.9221  -15.8459 C   0  0  0  0  0  0  0  0  0  0  0  0
  -21.9322   31.4491  -16.5262 N   0  0  0  0  0  0  0  0  0  0  0  0
  -18.0414   33.9675  -17.9626 O   0  0  0  0  0  0  0  0  0  0  0  0
  -23.1538   31.0405  -16.1040 C   0  0  0  0  0  0  0  0  0  0  0  0
  -17.9321   33.5796  -19.3285 C   0  0  0  0  0  0  0  0  0  0  0  0
  -21.0751   36.3800  -17.1843 H   0  0  0  0  0  0  0  0  0  0  0  0
  -18.6129   35.6689  -16.9941 H   0  0  0  0  0  0  0  0  0  0  0  0
  -19.1321   35.6022  -18.6871 H   0  0  0  0  0  0  0  0  0  0  0  0
  -25.1638   31.5712  -15.5085 H   0  0  0  0  0  0  0  0  0  0  0  0
  -23.2752   29.9701  -15.9769 H   0  0  0  0  0  0  0  0  0  0  0  0
  -17.2049   32.7661  -19.3956 H   0  0  0  0  0  0  0  0  0  0  0  0
  -17.5743   34.4172  -19.9349 H   0  0  0  0  0  0  0  0  0  0  0  0
  -18.8931   33.2211  -19.7088 H   0  0  0  0  0  0  0  0  0  0  0  0
  1  2  2  0  0  0  0
  2  3  1  0  0  0  0
  2  4  1  0  0  0  0
  3  5  1  0  0  0  0
  3 15  1  0  0  0  0
  4  6  2  0  0  0  0
  4  7  1  0  0  0  0
  5  8  2  0  0  0  0
  5  9  1  0  0  0  0
  6 10  1  0  0  0  0
  7 11  2  0  0  0  0
  7  8  1  0  0  0  0
  9 12  1  0  0  0  0
  9 16  1  0  0  0  0
  9 17  1  0  0  0  0
 10 13  2  0  0  0  0
 10 18  1  0  0  0  0
 11 13  1  0  0  0  0
 12 14  1  0  0  0  0
 13 19  1  0  0  0  0
 14 20  1  0  0  0  0
 14 21  1  0  0  0  0
 14 22  1  0  0  0  0
M  END
>  <Column 1>
COCc1nc2nccnc2c(=O)[nH]1 ZINC000000012984

>  <Total Molweight>
192.178

>  <cLogP>
-1.3062

>  <cLogS>
-0.615

>  <H-Acceptors>
6

>  <H-Donors>
1

>  <Total Surface Area>
145.48

>  <MMFF94 Energy>
77.044

> <Gold.Version>
5.8.1

> <Gold.Id.Protein>
ID|2FQT|mol2

> <Gold.PLP.Fitness>
43.4144

> <Gold.PLP.PLP>
-35.1117

> <Gold.PLP.part.hbond>
-3.1035

> <Gold.PLP.part.metal>
0.0000

> <Gold.PLP.part.buried>
-6.2400

> <Gold.PLP.part.nonpolar>
-27.4176

> <Gold.PLP.part.repulsive>
0.2745

> <Gold.PLP.ligand.clash>
0.0000

> <Gold.PLP.ligand.torsion>
0.2799

> <Gold.PLP.Chemscore.Hbond>
2.4071

> <Gold.PLP.Chemscore.CHOScore>
0.5467

> <Gold.PLP.Chemscore.Metal>
0.0000

> <Gold.Chemscore.Hbonds>
donor molecule, donor type, donor heavy atom, donor atom, acceptor molecule, acceptor atom, score
      L1  H     3    15       P1  1223  1.00
      P1  H  1912  4380       L1     8  0.59
      P1  H  1466  3954       L1    12  0.82
      L1  C    13    19       P1   427  0.55

> <Gold.PLP.Chemscore.Internal.Correction>
0.0010

> <Gold.Protein.RotatedTorsions>
[ 3412  950  949  948 ] final  151.28 input   60.00 | X-H torsion
[ 3476 1244 1243 1240 ] final -104.53 input   60.00 | X-H torsion
[ 2649 1223 1224 1225 ] final   75.51 input   60.00 | X-H torsion
[ 4380 1912 1911 1909 ] final   87.36 input   60.00 | X-H torsion
[ 3084  621  620  617 ] final  146.89 input   60.00 | X-H torsion

> <Gold.Protein.ActiveResidues>
 HIS54   GLU57   HIS58   ALA61   PHE62   ILE64   ARG65   ASP75   ILE76   ILE77  
 ASP78   ILE79   SER80   PRO81   ILE118  PRO119  ALA120  ALA121  ASN122  LYS124 
 GLN125  CYS126  GLY127  CO701   VAL4    GLU5    SER6    PHE7    GLU8    LEU9   
 HIS11   ARG20   HIS21   CYS22   GLY23   VAL24   HIS25   LYS35   ARG39   MET82  
 GLY83   CYS84   TYR89  

> <Gold.Protein.RotatedAtoms>
  -20.2223   38.6917  -17.1251 H   0  0  0  0  0  0  0  0  0  0  0  0  # atno 2649 bound_to 1223
  -21.4272   38.2796  -16.0642 H   0  0  0  0  0  0  0  0  0  0  0  0  # atno 2650 bound_to 1223
  -18.0189   27.6602  -13.4703 H   0  0  0  0  0  0  0  0  0  0  0  0  # atno 3084 bound_to 621 
  -27.6148   38.2964  -29.4361 H   0  0  0  0  0  0  0  0  0  0  0  0  # atno 3412 bound_to 950 
  -28.7515   39.2816  -28.7400 H   0  0  0  0  0  0  0  0  0  0  0  0  # atno 3413 bound_to 950 
  -28.4643   37.7748  -28.1120 H   0  0  0  0  0  0  0  0  0  0  0  0  # atno 3414 bound_to 950 
  -24.3987   32.3812  -20.1023 H   0  0  0  0  0  0  0  0  0  0  0  0  # atno 3476 bound_to 1244
  -20.2871   31.8671  -18.9530 H   0  0  0  0  0  0  0  0  0  0  0  0  # atno 4380 bound_to 1912
  -23.0964   31.4056  -20.1155 LP  0  0  0  0  0  0  0  0  0  0  0  0  # atno 4866 bound_to 1244
  -23.4929   32.2610  -21.4488 LP  0  0  0  0  0  0  0  0  0  0  0  0  # atno 4867 bound_to 1244
  -20.9688   37.2305  -17.2457 LP  0  0  0  0  0  0  0  0  0  0  0  0  # atno 4874 bound_to 1223
  -21.2267   30.7173  -19.6187 LP  0  0  0  0  0  0  0  0  0  0  0  0  # atno 4875 bound_to 1912
  -19.9226   31.2783  -20.4256 LP  0  0  0  0  0  0  0  0  0  0  0  0  # atno 4876 bound_to 1912
  -19.0051   28.8515  -12.9639 LP  0  0  0  0  0  0  0  0  0  0  0  0  # atno 4881 bound_to 621 
  -19.5638   27.7016  -13.9799 LP  0  0  0  0  0  0  0  0  0  0  0  0  # atno 4882 bound_to 621 

$$$$
Compound 89|Decoys_protonated|sdf|89|dock3
  -GOLD-   6122416183D 1   1.00000     0.00000

 33 34  0  0  0  0  0  0  0  0  1 V2000
  -26.2234   30.0575  -18.6273 S   0  0  0  0  0  0  0  0  0  0  0  0
  -27.1020   29.0177  -18.1364 O   0  0  0  0  0  0  0  0  0  0  0  0
  -26.7339   31.3577  -19.0046 O   0  0  0  0  0  0  0  0  0  0  0  0
  -25.0140   30.2913  -17.4815 N   0  0  0  0  0  0  0  0  0  0  0  0
  -25.3262   29.4013  -20.0218 C   0  0  0  0  0  0  0  0  0  0  0  0
  -24.9873   31.5779  -16.7291 C   0  0  0  0  0  0  0  0  0  0  0  0
  -23.6814   29.6899  -17.7572 C   0  0  0  0  0  0  0  0  0  0  0  0
  -23.6797   32.3608  -16.9429 C   0  0  0  0  0  0  0  0  0  0  0  0
  -22.6338   30.0886  -16.7002 C   0  0  0  0  0  0  0  0  0  0  0  0
  -22.5037   31.5453  -16.6136 N   0  0  0  0  0  0  0  0  0  0  0  0
  -21.3197   32.1940  -16.3298 C   0  0  0  0  0  0  0  0  0  0  0  0
  -20.8015   32.9980  -17.2786 N   0  0  0  0  0  0  0  0  0  0  0  0
  -20.6713   32.0517  -15.1178 C   0  0  0  0  0  0  0  0  0  0  0  0
  -19.6402   33.6313  -17.0236 C   0  0  0  0  0  0  0  0  0  0  0  0
  -19.4958   32.7469  -14.9402 C   0  0  0  0  0  0  0  0  0  0  0  0
  -18.9561   33.5424  -15.8736 N   0  0  0  0  0  0  0  0  0  0  0  0
  -19.1000   34.5374  -18.0846 C   0  0  0  0  0  0  0  0  0  0  0  0
  -24.5814   30.1288  -20.3470 H   0  0  0  0  0  0  0  0  0  0  0  0
  -26.0450   29.2298  -20.8265 H   0  0  0  0  0  0  0  0  0  0  0  0
  -24.8600   28.4558  -19.7425 H   0  0  0  0  0  0  0  0  0  0  0  0
  -25.1066   31.3356  -15.6658 H   0  0  0  0  0  0  0  0  0  0  0  0
  -25.8330   32.2164  -17.0040 H   0  0  0  0  0  0  0  0  0  0  0  0
  -23.3309   30.0123  -18.7439 H   0  0  0  0  0  0  0  0  0  0  0  0
  -23.7760   28.5987  -17.7620 H   0  0  0  0  0  0  0  0  0  0  0  0
  -23.6104   32.6861  -17.9881 H   0  0  0  0  0  0  0  0  0  0  0  0
  -23.7287   33.2561  -16.3105 H   0  0  0  0  0  0  0  0  0  0  0  0
  -21.6878   29.6186  -16.9920 H   0  0  0  0  0  0  0  0  0  0  0  0
  -22.9188   29.6948  -15.7174 H   0  0  0  0  0  0  0  0  0  0  0  0
  -21.0601   31.4446  -14.3135 H   0  0  0  0  0  0  0  0  0  0  0  0
  -18.9433   32.6825  -14.0075 H   0  0  0  0  0  0  0  0  0  0  0  0
  -18.0078   34.5814  -18.0344 H   0  0  0  0  0  0  0  0  0  0  0  0
  -19.3828   34.1780  -19.0786 H   0  0  0  0  0  0  0  0  0  0  0  0
  -19.5008   35.5457  -17.9467 H   0  0  0  0  0  0  0  0  0  0  0  0
  1  2  2  0  0  0  0
  1  3  2  0  0  0  0
  1  4  1  0  0  0  0
  1  5  1  0  0  0  0
  4  6  1  0  0  0  0
  4  7  1  0  0  0  0
  5 18  1  0  0  0  0
  5 19  1  0  0  0  0
  5 20  1  0  0  0  0
  6  8  1  0  0  0  0
  6 21  1  0  0  0  0
  6 22  1  0  0  0  0
  7  9  1  0  0  0  0
  7 23  1  0  0  0  0
  7 24  1  0  0  0  0
  8 10  1  0  0  0  0
  8 25  1  0  0  0  0
  8 26  1  0  0  0  0
  9 10  1  0  0  0  0
  9 27  1  0  0  0  0
  9 28  1  0  0  0  0
 10 11  1  0  0  0  0
 11 12  2  0  0  0  0
 11 13  1  0  0  0  0
 12 14  1  0  0  0  0
 13 15  2  0  0  0  0
 13 29  1  0  0  0  0
 14 16  2  0  0  0  0
 14 17  1  0  0  0  0
 15 16  1  0  0  0  0
 15 30  1  0  0  0  0
 17 31  1  0  0  0  0
 17 32  1  0  0  0  0
 17 33  1  0  0  0  0
M  END
>  <Column 1>
Cc1nccc(N2CCN(S(C)(=O)=O)CC2)n1 ZINC000000013140

>  <Total Molweight>
256.329

>  <cLogP>
0.0782

>  <cLogS>
-1.072

>  <H-Acceptors>
6

>  <H-Donors>
0

>  <Total Surface Area>
186.02

>  <MMFF94 Energy>
-31.108

> <Gold.Version>
5.8.1

> <Gold.Id.Protein>
ID|2FQT|mol2

> <Gold.PLP.Fitness>
57.2636

> <Gold.PLP.PLP>
-43.9892

> <Gold.PLP.part.hbond>
-1.9073

> <Gold.PLP.part.metal>
-1.5200

> <Gold.PLP.part.buried>
-0.7967

> <Gold.PLP.part.nonpolar>
-41.2884

> <Gold.PLP.part.repulsive>
0.2606

> <Gold.PLP.ligand.clash>
0.0000

> <Gold.PLP.ligand.torsion>
2.3449

> <Gold.PLP.Chemscore.Hbond>
1.0000

> <Gold.PLP.Chemscore.CHOScore>
0.3708

> <Gold.PLP.Chemscore.Metal>
1.9693

> <Gold.Chemscore.Hbonds>
donor molecule, donor type, donor heavy atom, donor atom, acceptor molecule, acceptor atom, score
      P1  H  1912  4380       L1    12  1.00
      L1  C    15    30       P1   606  0.37
      P1  M  1222  1222       L1     2  1.00
      P1  M  1222  1222       L1     3  0.97

> <Gold.PLP.Chemscore.Internal.Correction>
2.0356

> <Gold.Protein.RotatedTorsions>
[ 3412  950  949  948 ] final  -73.34 input   60.00 | X-H torsion
[ 3476 1244 1243 1240 ] final  162.48 input   60.00 | X-H torsion
[ 2649 1223 1224 1225 ] final  -65.84 input   60.00 | X-H torsion
[ 4380 1912 1911 1909 ] final   87.48 input   60.00 | X-H torsion
[ 3084  621  620  617 ] final  119.23 input   60.00 | X-H torsion

> <Gold.Protein.ActiveResidues>
 HIS54   GLU57   HIS58   ALA61   PHE62   ILE64   ARG65   ASP75   ILE76   ILE77  
 ASP78   ILE79   SER80   PRO81   ILE118  PRO119  ALA120  ALA121  ASN122  LYS124 
 GLN125  CYS126  GLY127  CO701   VAL4    GLU5    SER6    PHE7    GLU8    LEU9   
 HIS11   ARG20   HIS21   CYS22   GLY23   VAL24   HIS25   LYS35   ARG39   MET82  
 GLY83   CYS84   TYR89  

> <Gold.Protein.RotatedAtoms>
  -21.2135   37.1875  -16.9962 H   0  0  0  0  0  0  0  0  0  0  0  0  # atno 2649 bound_to 1223
  -20.1701   38.4250  -17.3527 H   0  0  0  0  0  0  0  0  0  0  0  0  # atno 2650 bound_to 1223
  -17.9665   28.0130  -13.1998 H   0  0  0  0  0  0  0  0  0  0  0  0  # atno 3084 bound_to 621 
  -28.8645   39.1720  -28.5380 H   0  0  0  0  0  0  0  0  0  0  0  0  # atno 3412 bound_to 950 
  -28.2836   37.6481  -28.2418 H   0  0  0  0  0  0  0  0  0  0  0  0  # atno 3413 bound_to 950 
  -27.6825   38.5326  -29.5082 H   0  0  0  0  0  0  0  0  0  0  0  0  # atno 3414 bound_to 950 
  -23.3981   31.5093  -19.8142 H   0  0  0  0  0  0  0  0  0  0  0  0  # atno 3476 bound_to 1244
  -20.2855   31.8678  -18.9540 H   0  0  0  0  0  0  0  0  0  0  0  0  # atno 4380 bound_to 1912
  -23.1685   31.9784  -21.3554 LP  0  0  0  0  0  0  0  0  0  0  0  0  # atno 4866 bound_to 1244
  -24.4285   32.5664  -20.4990 LP  0  0  0  0  0  0  0  0  0  0  0  0  # atno 4867 bound_to 1244
  -21.2307   38.5692  -16.1032 LP  0  0  0  0  0  0  0  0  0  0  0  0  # atno 4874 bound_to 1223
  -21.2272   30.7180  -19.6169 LP  0  0  0  0  0  0  0  0  0  0  0  0  # atno 4875 bound_to 1912
  -19.9238   31.2769  -20.4264 LP  0  0  0  0  0  0  0  0  0  0  0  0  # atno 4876 bound_to 1912
  -19.4044   28.7737  -13.1581 LP  0  0  0  0  0  0  0  0  0  0  0  0  # atno 4881 bound_to 621 
  -19.2173   27.4240  -14.0581 LP  0  0  0  0  0  0  0  0  0  0  0  0  # atno 4882 bound_to 621 

$$$$
Compound 90|Decoys_protonated|sdf|90|dock5
  -GOLD-   6122416183D 1   1.00000     0.00000

 38 39  0  0  0  0  0  0  0  0  1 V2000
  -20.1530   34.3698  -17.1527 S   0  0  0  0  0  0  0  0  0  0  0  0
  -19.3676   33.3205  -17.7629 O   0  0  0  0  0  0  0  0  0  0  0  0
  -20.4886   35.5745  -17.8744 O   0  0  0  0  0  0  0  0  0  0  0  0
  -21.5667   33.6572  -16.5980 N   0  0  0  0  0  0  0  0  0  0  0  0
  -19.4206   34.7992  -15.6858 N   0  0  0  0  0  0  0  0  0  0  0  0
  -21.6552   32.1663  -16.6075 C   0  0  0  0  0  0  0  0  0  0  0  0
  -22.8459   34.2973  -17.0338 C   0  0  0  0  0  0  0  0  0  0  0  0
  -18.1603   35.5624  -15.7925 C   0  0  0  0  0  0  0  0  0  0  0  0
  -19.3181   33.7007  -14.7033 C   0  0  0  0  0  0  0  0  0  0  0  0
  -22.8319   31.7016  -15.7236 C   0  0  0  0  0  0  0  0  0  0  0  0
  -24.0154   33.8148  -16.1470 C   0  0  0  0  0  0  0  0  0  0  0  0
  -24.0914   32.3422  -16.1504 N   0  0  0  0  0  0  0  0  0  0  0  0
  -24.8226   31.7093  -17.1496 C   0  0  0  0  0  0  0  0  0  0  0  0
  -25.5037   32.4619  -18.0321 N   0  0  0  0  0  0  0  0  0  0  0  0
  -24.8288   30.3280  -17.2558 C   0  0  0  0  0  0  0  0  0  0  0  0
  -26.1950   31.8191  -18.9850 C   0  0  0  0  0  0  0  0  0  0  0  0
  -25.5725   29.7565  -18.2733 C   0  0  0  0  0  0  0  0  0  0  0  0
  -26.2754   30.4940  -19.1497 N   0  0  0  0  0  0  0  0  0  0  0  0
  -25.6058   28.2673  -18.4387 C   0  0  0  0  0  0  0  0  0  0  0  0
  -20.7337   31.7301  -16.2098 H   0  0  0  0  0  0  0  0  0  0  0  0
  -21.7975   31.8151  -17.6340 H   0  0  0  0  0  0  0  0  0  0  0  0
  -22.7785   35.3860  -16.9436 H   0  0  0  0  0  0  0  0  0  0  0  0
  -23.0417   34.0464  -18.0827 H   0  0  0  0  0  0  0  0  0  0  0  0
  -17.3228   34.8979  -16.0278 H   0  0  0  0  0  0  0  0  0  0  0  0
  -18.2159   36.3430  -16.5535 H   0  0  0  0  0  0  0  0  0  0  0  0
  -17.9553   36.0600  -14.8390 H   0  0  0  0  0  0  0  0  0  0  0  0
  -18.7193   32.8751  -15.1000 H   0  0  0  0  0  0  0  0  0  0  0  0
  -20.3138   33.3411  -14.4270 H   0  0  0  0  0  0  0  0  0  0  0  0
  -18.8439   34.0602  -13.7840 H   0  0  0  0  0  0  0  0  0  0  0  0
  -22.6346   32.0017  -14.6860 H   0  0  0  0  0  0  0  0  0  0  0  0
  -22.9070   30.6076  -15.7122 H   0  0  0  0  0  0  0  0  0  0  0  0
  -24.9471   34.2912  -16.4683 H   0  0  0  0  0  0  0  0  0  0  0  0
  -23.8401   34.1453  -15.1150 H   0  0  0  0  0  0  0  0  0  0  0  0
  -24.2457   29.7077  -16.5881 H   0  0  0  0  0  0  0  0  0  0  0  0
  -26.7427   32.4342  -19.6903 H   0  0  0  0  0  0  0  0  0  0  0  0
  -24.5992   27.8863  -18.6374 H   0  0  0  0  0  0  0  0  0  0  0  0
  -25.9975   27.7945  -17.5328 H   0  0  0  0  0  0  0  0  0  0  0  0
  -26.2499   27.9822  -19.2770 H   0  0  0  0  0  0  0  0  0  0  0  0
  1  2  2  0  0  0  0
  1  3  2  0  0  0  0
  1  4  1  0  0  0  0
  1  5  1  0  0  0  0
  4  6  1  0  0  0  0
  4  7  1  0  0  0  0
  5  8  1  0  0  0  0
  5  9  1  0  0  0  0
  6 10  1  0  0  0  0
  6 20  1  0  0  0  0
  6 21  1  0  0  0  0
  7 11  1  0  0  0  0
  7 22  1  0  0  0  0
  7 23  1  0  0  0  0
  8 24  1  0  0  0  0
  8 25  1  0  0  0  0
  8 26  1  0  0  0  0
  9 27  1  0  0  0  0
  9 28  1  0  0  0  0
  9 29  1  0  0  0  0
 10 12  1  0  0  0  0
 10 30  1  0  0  0  0
 10 31  1  0  0  0  0
 11 12  1  0  0  0  0
 11 32  1  0  0  0  0
 11 33  1  0  0  0  0
 12 13  1  0  0  0  0
 13 14  2  0  0  0  0
 13 15  1  0  0  0  0
 14 16  1  0  0  0  0
 15 17  2  0  0  0  0
 15 34  1  0  0  0  0
 16 18  2  0  0  0  0
 16 35  1  0  0  0  0
 17 19  1  0  0  0  0
 17 18  1  0  0  0  0
 19 36  1  0  0  0  0
 19 37  1  0  0  0  0
 19 38  1  0  0  0  0
M  END
>  <Column 1>
Cc1cc(N2CCN(S(=O)(=O)N(C)C)CC2)ncn1 ZINC000000013146

>  <Total Molweight>
285.371

>  <cLogP>
0.1004

>  <cLogS>
-0.845

>  <H-Acceptors>
7

>  <H-Donors>
0

>  <Total Surface Area>
208.58

>  <MMFF94 Energy>
-145.78

> <Gold.Version>
5.8.1

> <Gold.Id.Protein>
ID|2FQT|mol2

> <Gold.PLP.Fitness>
54.9985

> <Gold.PLP.PLP>
-39.0583

> <Gold.PLP.part.hbond>
-4.7955

> <Gold.PLP.part.metal>
-0.6409

> <Gold.PLP.part.buried>
-2.3284

> <Gold.PLP.part.nonpolar>
-31.1188

> <Gold.PLP.part.repulsive>
0.2526

> <Gold.PLP.ligand.clash>
0.0000

> <Gold.PLP.ligand.torsion>
0.9460

> <Gold.PLP.Chemscore.Hbond>
3.0000

> <Gold.PLP.Chemscore.CHOScore>
0.8093

> <Gold.PLP.Chemscore.Metal>
0.8393

> <Gold.Chemscore.Hbonds>
donor molecule, donor type, donor heavy atom, donor atom, acceptor molecule, acceptor atom, score
      P1  H  1223  2650       L1     3  1.00
      P1  H  1912  4380       L1     2  1.00
      P1  H  1239  3336       L1     3  1.00
      L1  C    16    35       P1   954  0.81
      P1  M  1222  1222       L1    18  0.84

> <Gold.PLP.Chemscore.Internal.Correction>
1.3688

> <Gold.Protein.RotatedTorsions>
[ 3412  950  949  948 ] final   12.55 input   60.00 | X-H torsion
[ 3476 1244 1243 1240 ] final  -83.28 input   60.00 | X-H torsion
[ 2649 1223 1224 1225 ] final -169.51 input   60.00 | X-H torsion
[ 4380 1912 1911 1909 ] final  100.25 input   60.00 | X-H torsion
[ 3084  621  620  617 ] final   22.76 input   60.00 | X-H torsion

> <Gold.Protein.ActiveResidues>
 HIS54   GLU57   HIS58   ALA61   PHE62   ILE64   ARG65   ASP75   ILE76   ILE77  
 ASP78   ILE79   SER80   PRO81   ILE118  PRO119  ALA120  ALA121  ASN122  LYS124 
 GLN125  CYS126  GLY127  CO701   VAL4    GLU5    SER6    PHE7    GLU8    LEU9   
 HIS11   ARG20   HIS21   CYS22   GLY23   VAL24   HIS25   LYS35   ARG39   MET82  
 GLY83   CYS84   TYR89  

> <Gold.Protein.RotatedAtoms>
  -21.3875   38.3533  -16.0608 H   0  0  0  0  0  0  0  0  0  0  0  0  # atno 2649 bound_to 1223
  -21.0274   37.1985  -17.1938 H   0  0  0  0  0  0  0  0  0  0  0  0  # atno 2650 bound_to 1223
  -19.0684   28.8445  -12.9879 H   0  0  0  0  0  0  0  0  0  0  0  0  # atno 3084 bound_to 621 
  -28.6651   37.9934  -28.0173 H   0  0  0  0  0  0  0  0  0  0  0  0  # atno 3412 bound_to 950 
  -27.5966   38.0251  -29.2841 H   0  0  0  0  0  0  0  0  0  0  0  0  # atno 3413 bound_to 950 
  -28.5688   39.3343  -28.9867 H   0  0  0  0  0  0  0  0  0  0  0  0  # atno 3414 bound_to 950 
  -24.4311   32.5342  -20.4100 H   0  0  0  0  0  0  0  0  0  0  0  0  # atno 3476 bound_to 1244
  -20.1252   31.9243  -19.0741 H   0  0  0  0  0  0  0  0  0  0  0  0  # atno 4380 bound_to 1912
  -23.3258   31.4724  -19.8631 LP  0  0  0  0  0  0  0  0  0  0  0  0  # atno 4866 bound_to 1244
  -23.2308   32.0401  -21.3913 LP  0  0  0  0  0  0  0  0  0  0  0  0  # atno 4867 bound_to 1244
  -20.2148   38.6290  -17.1813 LP  0  0  0  0  0  0  0  0  0  0  0  0  # atno 4874 bound_to 1223
  -21.2548   30.8083  -19.4297 LP  0  0  0  0  0  0  0  0  0  0  0  0  # atno 4875 bound_to 1912
  -20.0576   31.1298  -20.4927 LP  0  0  0  0  0  0  0  0  0  0  0  0  # atno 4876 bound_to 1912
  -19.5206   27.6529  -13.9997 LP  0  0  0  0  0  0  0  0  0  0  0  0  # atno 4881 bound_to 621 
  -17.9913   27.7075  -13.4298 LP  0  0  0  0  0  0  0  0  0  0  0  0  # atno 4882 bound_to 621 

$$$$
Compound 91|Decoys_protonated|sdf|91|dock1
  -GOLD-   6122416183D 1   1.00000     0.00000

 33 34  0  0  0  0  0  0  0  0  1 V2000
  -25.8903   29.7597  -18.3804 S   0  0  0  0  0  0  0  0  0  0  0  0
  -26.6505   28.6479  -17.8527 O   0  0  0  0  0  0  0  0  0  0  0  0
  -26.5418   30.8695  -19.0428 O   0  0  0  0  0  0  0  0  0  0  0  0
  -24.9578   30.3950  -17.1092 N   0  0  0  0  0  0  0  0  0  0  0  0
  -24.6327   29.1380  -19.4784 C   0  0  0  0  0  0  0  0  0  0  0  0
  -25.1653   31.8538  -16.8108 C   0  0  0  0  0  0  0  0  0  0  0  0
  -23.5077   30.0156  -17.1994 C   0  0  0  0  0  0  0  0  0  0  0  0
  -23.9581   32.7290  -17.1926 C   0  0  0  0  0  0  0  0  0  0  0  0
  -22.6232   30.8341  -16.2409 C   0  0  0  0  0  0  0  0  0  0  0  0
  -22.7505   32.2720  -16.4917 N   0  0  0  0  0  0  0  0  0  0  0  0
  -21.7504   33.1839  -16.2237 C   0  0  0  0  0  0  0  0  0  0  0  0
  -21.6511   34.2641  -17.0191 N   0  0  0  0  0  0  0  0  0  0  0  0
  -20.8699   33.0241  -15.1659 C   0  0  0  0  0  0  0  0  0  0  0  0
  -20.6739   35.1450  -16.7581 C   0  0  0  0  0  0  0  0  0  0  0  0
  -19.8955   33.9897  -14.9713 C   0  0  0  0  0  0  0  0  0  0  0  0
  -19.7801   35.0655  -15.7669 N   0  0  0  0  0  0  0  0  0  0  0  0
  -18.9225   33.8619  -13.8381 C   0  0  0  0  0  0  0  0  0  0  0  0
  -23.9659   29.9583  -19.7504 H   0  0  0  0  0  0  0  0  0  0  0  0
  -25.1309   28.7560  -20.3724 H   0  0  0  0  0  0  0  0  0  0  0  0
  -24.0854   28.3303  -18.9917 H   0  0  0  0  0  0  0  0  0  0  0  0
  -26.0599   32.2381  -17.3105 H   0  0  0  0  0  0  0  0  0  0  0  0
  -25.3550   31.9326  -15.7328 H   0  0  0  0  0  0  0  0  0  0  0  0
  -23.4080   28.9539  -16.9484 H   0  0  0  0  0  0  0  0  0  0  0  0
  -23.1541   30.1640  -18.2276 H   0  0  0  0  0  0  0  0  0  0  0  0
  -24.2126   33.7611  -16.9226 H   0  0  0  0  0  0  0  0  0  0  0  0
  -23.7879   32.6943  -18.2754 H   0  0  0  0  0  0  0  0  0  0  0  0
  -21.5899   30.4984  -16.3883 H   0  0  0  0  0  0  0  0  0  0  0  0
  -22.9048   30.6256  -15.2020 H   0  0  0  0  0  0  0  0  0  0  0  0
  -20.9354   32.1842  -14.4885 H   0  0  0  0  0  0  0  0  0  0  0  0
  -20.6038   36.0048  -17.4148 H   0  0  0  0  0  0  0  0  0  0  0  0
  -19.4546   33.8554  -12.8819 H   0  0  0  0  0  0  0  0  0  0  0  0
  -18.3470   32.9362  -13.9363 H   0  0  0  0  0  0  0  0  0  0  0  0
  -18.2191   34.7009  -13.8310 H   0  0  0  0  0  0  0  0  0  0  0  0
  1  2  2  0  0  0  0
  1  3  2  0  0  0  0
  1  4  1  0  0  0  0
  1  5  1  0  0  0  0
  4  6  1  0  0  0  0
  4  7  1  0  0  0  0
  5 18  1  0  0  0  0
  5 19  1  0  0  0  0
  5 20  1  0  0  0  0
  6  8  1  0  0  0  0
  6 21  1  0  0  0  0
  6 22  1  0  0  0  0
  7  9  1  0  0  0  0
  7 23  1  0  0  0  0
  7 24  1  0  0  0  0
  8 10  1  0  0  0  0
  8 25  1  0  0  0  0
  8 26  1  0  0  0  0
  9 10  1  0  0  0  0
  9 27  1  0  0  0  0
  9 28  1  0  0  0  0
 10 11  1  0  0  0  0
 11 12  2  0  0  0  0
 11 13  1  0  0  0  0
 12 14  1  0  0  0  0
 13 15  2  0  0  0  0
 13 29  1  0  0  0  0
 14 16  2  0  0  0  0
 14 30  1  0  0  0  0
 15 17  1  0  0  0  0
 15 16  1  0  0  0  0
 17 31  1  0  0  0  0
 17 32  1  0  0  0  0
 17 33  1  0  0  0  0
M  END
>  <Column 1>
Cc1cc(N2CCN(S(C)(=O)=O)CC2)ncn1 ZINC000000013147

>  <Total Molweight>
256.329

>  <cLogP>
0.2427

>  <cLogS>
-1.812

>  <H-Acceptors>
6

>  <H-Donors>
0

>  <Total Surface Area>
186.02

>  <MMFF94 Energy>
-30.242

> <Gold.Version>
5.8.1

> <Gold.Id.Protein>
ID|2FQT|mol2

> <Gold.PLP.Fitness>
48.4079

> <Gold.PLP.PLP>
-36.3928

> <Gold.PLP.part.hbond>
-0.1850

> <Gold.PLP.part.metal>
-2.0000

> <Gold.PLP.part.buried>
-0.7015

> <Gold.PLP.part.nonpolar>
-34.2387

> <Gold.PLP.part.repulsive>
0.4299

> <Gold.PLP.ligand.clash>
2.1968

> <Gold.PLP.ligand.torsion>
0.5617

> <Gold.PLP.Chemscore.Hbond>
0.0000

> <Gold.PLP.Chemscore.CHOScore>
1.0000

> <Gold.PLP.Chemscore.Metal>
1.9951

> <Gold.Chemscore.Hbonds>
donor molecule, donor type, donor heavy atom, donor atom, acceptor molecule, acceptor atom, score
      L1  C    14    30       P1  1223  1.00
      P1  M  1222  1222       L1     2  1.00
      P1  M  1222  1222       L1     3  1.00

> <Gold.PLP.Chemscore.Internal.Correction>
0.3647

> <Gold.Protein.RotatedTorsions>
[ 3412  950  949  948 ] final  -56.42 input   60.00 | X-H torsion
[ 3476 1244 1243 1240 ] final   37.84 input   60.00 | X-H torsion
[ 2649 1223 1224 1225 ] final   84.57 input   60.00 | X-H torsion
[ 4380 1912 1911 1909 ] final  116.74 input   60.00 | X-H torsion
[ 3084  621  620  617 ] final -145.13 input   60.00 | X-H torsion

> <Gold.Protein.ActiveResidues>
 HIS54   GLU57   HIS58   ALA61   PHE62   ILE64   ARG65   ASP75   ILE76   ILE77  
 ASP78   ILE79   SER80   PRO81   ILE118  PRO119  ALA120  ALA121  ASN122  LYS124 
 GLN125  CYS126  GLY127  CO701   VAL4    GLU5    SER6    PHE7    GLU8    LEU9   
 HIS11   ARG20   HIS21   CYS22   GLY23   VAL24   HIS25   LYS35   ARG39   MET82  
 GLY83   CYS84   TYR89  

> <Gold.Protein.RotatedAtoms>
  -20.2723   38.7805  -17.0134 H   0  0  0  0  0  0  0  0  0  0  0  0  # atno 2649 bound_to 1223
  -21.4880   38.1428  -16.0848 H   0  0  0  0  0  0  0  0  0  0  0  0  # atno 2650 bound_to 1223
  -18.8422   27.3047  -14.0102 H   0  0  0  0  0  0  0  0  0  0  0  0  # atno 3084 bound_to 621 
  -28.9400   38.9922  -28.3350 H   0  0  0  0  0  0  0  0  0  0  0  0  # atno 3412 bound_to 950 
  -28.0847   37.5755  -28.4274 H   0  0  0  0  0  0  0  0  0  0  0  0  # atno 3413 bound_to 950 
  -27.8058   38.7851  -29.5257 H   0  0  0  0  0  0  0  0  0  0  0  0  # atno 3414 bound_to 950 
  -23.2201   32.0298  -21.3784 H   0  0  0  0  0  0  0  0  0  0  0  0  # atno 3476 bound_to 1244
  -19.9448   31.9504  -19.2714 H   0  0  0  0  0  0  0  0  0  0  0  0  # atno 4380 bound_to 1912
  -24.4367   32.5424  -20.4270 LP  0  0  0  0  0  0  0  0  0  0  0  0  # atno 4866 bound_to 1244
  -23.3396   31.4782  -19.8522 LP  0  0  0  0  0  0  0  0  0  0  0  0  # atno 4867 bound_to 1244
  -20.8597   37.2778  -17.3354 LP  0  0  0  0  0  0  0  0  0  0  0  0  # atno 4874 bound_to 1223
  -21.2338   30.9593  -19.2063 LP  0  0  0  0  0  0  0  0  0  0  0  0  # atno 4875 bound_to 1912
  -20.2603   30.9525  -20.5174 LP  0  0  0  0  0  0  0  0  0  0  0  0  # atno 4876 bound_to 1912
  -18.0843   28.3404  -13.0097 LP  0  0  0  0  0  0  0  0  0  0  0  0  # atno 4881 bound_to 621 
  -19.6555   28.5707  -13.3904 LP  0  0  0  0  0  0  0  0  0  0  0  0  # atno 4882 bound_to 621 

$$$$
Compound 92|Decoys_protonated|sdf|92|dock4
  -GOLD-   6122416183D 1   1.00000     0.00000

 16 16  0  0  0  0  0  0  0  0  1 V2000
  -22.7797   29.9725  -21.4436 O   0  0  0  0  0  0  0  0  0  0  0  0
  -23.5923   29.8364  -20.5386 C   0  0  0  0  0  0  0  0  0  0  0  0
  -24.9220   30.0440  -20.7209 N   0  0  0  0  0  0  0  0  0  0  0  0
  -23.2185   29.3971  -19.3137 N   0  0  0  0  0  0  0  0  0  0  0  0
  -25.9298   29.7075  -19.8517 C   0  0  0  0  0  0  0  0  0  0  0  0
  -24.0401   29.4978  -18.1257 C   0  0  2  0  0  0  0  0  0  0  0  0
  -27.1088   29.7350  -20.1759 O   0  0  0  0  0  0  0  0  0  0  0  0
  -25.5054   29.2962  -18.4450 C   0  0  0  0  0  0  0  0  0  0  0  0
  -23.8449   30.8408  -17.4347 C   0  0  0  0  0  0  0  0  0  0  0  0
  -26.3415   28.9843  -17.6061 O   0  0  0  0  0  0  0  0  0  0  0  0
  -25.2046   30.3359  -21.6453 H   0  0  0  0  0  0  0  0  0  0  0  0
  -22.2276   29.2006  -19.2201 H   0  0  0  0  0  0  0  0  0  0  0  0
  -23.7232   28.6841  -17.4643 H   0  0  0  0  0  0  0  0  0  0  0  0
  -24.4390   30.8995  -16.5164 H   0  0  0  0  0  0  0  0  0  0  0  0
  -22.7927   30.9937  -17.1718 H   0  0  0  0  0  0  0  0  0  0  0  0
  -24.1501   31.6727  -18.0799 H   0  0  0  0  0  0  0  0  0  0  0  0
  1  2  2  0  0  0  0
  2  3  1  0  0  0  0
  2  4  1  0  0  0  0
  3  5  1  0  0  0  0
  3 11  1  0  0  0  0
  4  6  1  0  0  0  0
  4 12  1  0  0  0  0
  5  7  2  0  0  0  0
  5  8  1  0  0  0  0
  6  9  1  0  0  0  0
  6  8  1  0  0  0  0
  6 13  1  0  0  0  0
  8 10  2  0  0  0  0
  9 14  1  0  0  0  0
  9 15  1  0  0  0  0
  9 16  1  0  0  0  0
M  END
>  <Column 1>
CC1NC(=O)NC(=O)C1=O ZINC000000013352

>  <Total Molweight>
142.114

>  <cLogP>
-1.1574

>  <cLogS>
-1.058

>  <H-Acceptors>
5

>  <H-Donors>
2

>  <Total Surface Area>
100.93

>  <MMFF94 Energy>
-56.247

> <Gold.Version>
5.8.1

> <Gold.Id.Protein>
ID|2FQT|mol2

> <Gold.PLP.Fitness>
43.8001

> <Gold.PLP.PLP>
-24.4486

> <Gold.PLP.part.hbond>
-5.8760

> <Gold.PLP.part.metal>
-2.0000

> <Gold.PLP.part.buried>
2.0377

> <Gold.PLP.part.nonpolar>
-20.7544

> <Gold.PLP.part.repulsive>
1.9750

> <Gold.PLP.ligand.clash>
0.0000

> <Gold.PLP.ligand.torsion>
0.0000

> <Gold.PLP.Chemscore.Hbond>
2.5731

> <Gold.PLP.Chemscore.CHOScore>
0.0000

> <Gold.PLP.Chemscore.Metal>
1.9387

> <Gold.Chemscore.Hbonds>
donor molecule, donor type, donor heavy atom, donor atom, acceptor molecule, acceptor atom, score
      L1  H     3    11       P1  1290  0.91
      P1  H   966  3428       L1     7  0.88
      P1  H  1244  3476       L1     1  0.18
      P1  H  1503  3989       L1     1  0.61
      P1  M  1222  1222       L1     7  0.97
      P1  M  1222  1222       L1    10  0.97

> <Gold.PLP.Chemscore.Internal.Correction>
0.0000

> <Gold.Protein.RotatedTorsions>
[ 3412  950  949  948 ] final  131.59 input   60.00 | X-H torsion
[ 3476 1244 1243 1240 ] final   61.13 input   60.00 | X-H torsion
[ 2649 1223 1224 1225 ] final  -83.62 input   60.00 | X-H torsion
[ 4380 1912 1911 1909 ] final  178.89 input   60.00 | X-H torsion
[ 3084  621  620  617 ] final -118.95 input   60.00 | X-H torsion

> <Gold.Protein.ActiveResidues>
 HIS54   GLU57   HIS58   ALA61   PHE62   ILE64   ARG65   ASP75   ILE76   ILE77  
 ASP78   ILE79   SER80   PRO81   ILE118  PRO119  ALA120  ALA121  ASN122  LYS124 
 GLN125  CYS126  GLY127  CO701   VAL4    GLU5    SER6    PHE7    GLU8    LEU9   
 HIS11   ARG20   HIS21   CYS22   GLY23   VAL24   HIS25   LYS35   ARG39   MET82  
 GLY83   CYS84   TYR89  

> <Gold.Protein.RotatedAtoms>
  -21.3845   37.2557  -16.7648 H   0  0  0  0  0  0  0  0  0  0  0  0  # atno 2649 bound_to 1223
  -20.2003   38.1631  -17.4868 H   0  0  0  0  0  0  0  0  0  0  0  0  # atno 2650 bound_to 1223
  -19.2415   27.4414  -14.0511 H   0  0  0  0  0  0  0  0  0  0  0  0  # atno 3084 bound_to 621 
  -27.5976   38.0124  -29.2746 H   0  0  0  0  0  0  0  0  0  0  0  0  # atno 3412 bound_to 950 
  -28.5585   39.3345  -28.9989 H   0  0  0  0  0  0  0  0  0  0  0  0  # atno 3413 bound_to 950 
  -28.6744   38.0060  -28.0146 H   0  0  0  0  0  0  0  0  0  0  0  0  # atno 3414 bound_to 950 
  -23.0075   31.7876  -21.1809 H   0  0  0  0  0  0  0  0  0  0  0  0  # atno 3476 bound_to 1244
  -19.7352   31.5939  -20.1448 H   0  0  0  0  0  0  0  0  0  0  0  0  # atno 4380 bound_to 1912
  -24.3461   32.6251  -20.7873 LP  0  0  0  0  0  0  0  0  0  0  0  0  # atno 4866 bound_to 1244
  -23.6442   31.6394  -19.6907 LP  0  0  0  0  0  0  0  0  0  0  0  0  # atno 4867 bound_to 1244
  -21.0326   38.7600  -16.1992 LP  0  0  0  0  0  0  0  0  0  0  0  0  # atno 4874 bound_to 1223
  -20.6693   31.6479  -18.8135 LP  0  0  0  0  0  0  0  0  0  0  0  0  # atno 4875 bound_to 1912
  -21.0360   30.6228  -20.0306 LP  0  0  0  0  0  0  0  0  0  0  0  0  # atno 4876 bound_to 1912
  -17.9566   27.9893  -13.2163 LP  0  0  0  0  0  0  0  0  0  0  0  0  # atno 4881 bound_to 621 
  -19.3811   28.7842  -13.1425 LP  0  0  0  0  0  0  0  0  0  0  0  0  # atno 4882 bound_to 621 

$$$$
Compound 93|Decoys_protonated|sdf|93|dock4
  -GOLD-   6122416183D 1   1.00000     0.00000

 32 34  0  0  0  0  0  0  0  0  1 V2000
  -21.6483   35.5915  -17.6998 N   0  0  0  0  0  0  0  0  0  0  0  0
  -22.8021   35.1101  -17.2217 N   0  0  0  0  0  0  0  0  0  0  0  0
  -20.7374   34.6728  -17.3595 C   0  0  0  0  0  0  0  0  0  0  0  0
  -22.6865   33.9372  -16.5325 C   0  0  0  0  0  0  0  0  0  0  0  0
  -19.4167   34.7608  -17.6791 N   0  0  0  0  0  0  0  0  0  0  0  0
  -21.3322   33.6237  -16.5835 C   0  0  0  0  0  0  0  0  0  0  0  0
  -23.6377   33.1508  -15.8735 C   0  0  0  0  0  0  0  0  0  0  0  0
  -18.4724   35.4229  -16.7687 C   0  0  0  0  0  0  0  0  0  0  0  0
  -18.8065   33.6731  -18.4614 C   0  0  0  0  0  0  0  0  0  0  0  0
  -20.8903   32.4714  -15.8996 C   0  0  0  0  0  0  0  0  0  0  0  0
  -23.1759   32.0021  -15.2243 C   0  0  0  0  0  0  0  0  0  0  0  0
  -17.2136   35.8917  -17.5326 C   0  0  0  0  0  0  0  0  0  0  0  0
  -17.5325   34.1668  -19.1844 C   0  0  0  0  0  0  0  0  0  0  0  0
  -21.8228   31.6680  -15.2304 C   0  0  0  0  0  0  0  0  0  0  0  0
  -16.5512   34.7939  -18.2698 N   0  0  0  0  0  0  0  0  0  0  0  0
  -15.3978   35.2922  -19.0145 C   0  0  0  0  0  0  0  0  0  0  0  0
  -23.6457   35.6447  -17.3876 H   0  0  0  0  0  0  0  0  0  0  0  0
  -24.6887   33.4193  -15.8553 H   0  0  0  0  0  0  0  0  0  0  0  0
  -18.9127   36.2899  -16.2685 H   0  0  0  0  0  0  0  0  0  0  0  0
  -18.1809   34.7178  -15.9790 H   0  0  0  0  0  0  0  0  0  0  0  0
  -18.5567   32.8354  -17.7976 H   0  0  0  0  0  0  0  0  0  0  0  0
  -19.5023   33.3017  -19.2243 H   0  0  0  0  0  0  0  0  0  0  0  0
  -19.8367   32.2140  -15.8751 H   0  0  0  0  0  0  0  0  0  0  0  0
  -23.8827   31.3653  -14.6968 H   0  0  0  0  0  0  0  0  0  0  0  0
  -16.5111   36.3175  -16.8058 H   0  0  0  0  0  0  0  0  0  0  0  0
  -17.4989   36.6961  -18.2243 H   0  0  0  0  0  0  0  0  0  0  0  0
  -17.0681   33.3082  -19.6842 H   0  0  0  0  0  0  0  0  0  0  0  0
  -17.8271   34.8807  -19.9659 H   0  0  0  0  0  0  0  0  0  0  0  0
  -21.4838   30.7785  -14.7048 H   0  0  0  0  0  0  0  0  0  0  0  0
  -14.6610   35.7297  -18.3319 H   0  0  0  0  0  0  0  0  0  0  0  0
  -14.8946   34.4708  -19.5366 H   0  0  0  0  0  0  0  0  0  0  0  0
  -15.6751   36.0518  -19.7543 H   0  0  0  0  0  0  0  0  0  0  0  0
  1  2  1  0  0  0  0
  1  3  2  0  0  0  0
  2  4  1  0  0  0  0
  2 17  1  0  0  0  0
  3  5  1  0  0  0  0
  3  6  1  0  0  0  0
  4  7  1  0  0  0  0
  4  6  2  0  0  0  0
  5  8  1  0  0  0  0
  5  9  1  0  0  0  0
  6 10  1  0  0  0  0
  7 11  2  0  0  0  0
  7 18  1  0  0  0  0
  8 12  1  0  0  0  0
  8 19  1  0  0  0  0
  8 20  1  0  0  0  0
  9 13  1  0  0  0  0
  9 21  1  0  0  0  0
  9 22  1  0  0  0  0
 10 14  2  0  0  0  0
 10 23  1  0  0  0  0
 11 14  1  0  0  0  0
 11 24  1  0  0  0  0
 12 15  1  0  0  0  0
 12 25  1  0  0  0  0
 12 26  1  0  0  0  0
 13 15  1  0  0  0  0
 13 27  1  0  0  0  0
 13 28  1  0  0  0  0
 14 29  1  0  0  0  0
 15 16  1  0  0  0  0
 16 30  1  0  0  0  0
 16 31  1  0  0  0  0
 16 32  1  0  0  0  0
M  END
>  <Column 1>
CN1CCN(c2n[nH]c3ccccc23)CC1 ZINC000000013498

>  <Total Molweight>
216.287

>  <cLogP>
0.9999

>  <cLogS>
-1.82

>  <H-Acceptors>
4

>  <H-Donors>
1

>  <Total Surface Area>
170.59

>  <MMFF94 Energy>
71.632

> <Gold.Version>
5.8.1

> <Gold.Id.Protein>
ID|2FQT|mol2

> <Gold.PLP.Fitness>
51.1984

> <Gold.PLP.PLP>
-46.0983

> <Gold.PLP.part.hbond>
-3.8167

> <Gold.PLP.part.metal>
0.0000

> <Gold.PLP.part.buried>
-4.6664

> <Gold.PLP.part.nonpolar>
-38.9917

> <Gold.PLP.part.repulsive>
0.2884

> <Gold.PLP.ligand.clash>
0.0000

> <Gold.PLP.ligand.torsion>
1.3002

> <Gold.PLP.Chemscore.Hbond>
2.4885

> <Gold.PLP.Chemscore.CHOScore>
0.0000

> <Gold.PLP.Chemscore.Metal>
0.0000

> <Gold.Chemscore.Hbonds>
donor molecule, donor type, donor heavy atom, donor atom, acceptor molecule, acceptor atom, score
      P1  H  1223  2650       L1     1  1.00
      P1  H  1239  3336       L1     1  0.49
      P1  H  1466  3954       L1    15  1.00

> <Gold.PLP.Chemscore.Internal.Correction>
0.2349

> <Gold.Protein.RotatedTorsions>
[ 3412  950  949  948 ] final    5.52 input   60.00 | X-H torsion
[ 3476 1244 1243 1240 ] final -168.05 input   60.00 | X-H torsion
[ 2649 1223 1224 1225 ] final  173.81 input   60.00 | X-H torsion
[ 4380 1912 1911 1909 ] final -149.11 input   60.00 | X-H torsion
[ 3084  621  620  617 ] final  135.94 input   60.00 | X-H torsion

> <Gold.Protein.ActiveResidues>
 HIS54   GLU57   HIS58   ALA61   PHE62   ILE64   ARG65   ASP75   ILE76   ILE77  
 ASP78   ILE79   SER80   PRO81   ILE118  PRO119  ALA120  ALA121  ASN122  LYS124 
 GLN125  CYS126  GLY127  CO701   VAL4    GLU5    SER6    PHE7    GLU8    LEU9   
 HIS11   ARG20   HIS21   CYS22   GLY23   VAL24   HIS25   LYS35   ARG39   MET82  
 GLY83   CYS84   TYR89  

> <Gold.Protein.RotatedAtoms>
  -21.2290   38.5792  -16.0908 H   0  0  0  0  0  0  0  0  0  0  0  0  # atno 2649 bound_to 1223
  -21.2174   37.1881  -16.9917 H   0  0  0  0  0  0  0  0  0  0  0  0  # atno 2650 bound_to 1223
  -17.9734   27.7930  -13.3595 H   0  0  0  0  0  0  0  0  0  0  0  0  # atno 3084 bound_to 621 
  -28.7309   38.0893  -28.0019 H   0  0  0  0  0  0  0  0  0  0  0  0  # atno 3412 bound_to 950 
  -27.6086   37.9336  -29.2117 H   0  0  0  0  0  0  0  0  0  0  0  0  # atno 3413 bound_to 950 
  -28.4911   39.3299  -29.0745 H   0  0  0  0  0  0  0  0  0  0  0  0  # atno 3414 bound_to 950 
  -23.7877   31.7409  -19.6684 H   0  0  0  0  0  0  0  0  0  0  0  0  # atno 3476 bound_to 1244
  -19.9594   31.2360  -20.4415 H   0  0  0  0  0  0  0  0  0  0  0  0  # atno 4380 bound_to 1912
  -22.9399   31.6815  -21.0561 LP  0  0  0  0  0  0  0  0  0  0  0  0  # atno 4866 bound_to 1244
  -24.2646   32.6299  -20.9452 LP  0  0  0  0  0  0  0  0  0  0  0  0  # atno 4867 bound_to 1244
  -20.1838   38.4167  -17.3509 LP  0  0  0  0  0  0  0  0  0  0  0  0  # atno 4874 bound_to 1223
  -20.2412   31.8917  -18.9791 LP  0  0  0  0  0  0  0  0  0  0  0  0  # atno 4875 bound_to 1912
  -21.2383   30.7395  -19.5663 LP  0  0  0  0  0  0  0  0  0  0  0  0  # atno 4876 bound_to 1912
  -19.1727   28.8419  -13.0289 LP  0  0  0  0  0  0  0  0  0  0  0  0  # atno 4881 bound_to 621 
  -19.4420   27.5774  -14.0264 LP  0  0  0  0  0  0  0  0  0  0  0  0  # atno 4882 bound_to 621 

$$$$
Compound 94|Decoys_protonated|sdf|94|dock2
  -GOLD-   6122416183D 1   1.00000     0.00000

 18 19  0  0  0  0  0  0  0  0  1 V2000
  -20.5918   30.6867  -15.0406 S   0  0  0  0  0  0  0  0  0  0  0  0
  -20.4356   32.0883  -15.9473 C   0  0  0  0  0  0  0  0  0  0  0  0
  -22.2970   30.9097  -14.9592 C   0  0  0  0  0  0  0  0  0  0  0  0
  -19.2023   32.4904  -16.3625 N   0  0  0  0  0  0  0  0  0  0  0  0
  -21.6127   32.7321  -16.2007 C   0  0  0  0  0  0  0  0  0  0  0  0
  -22.7271   32.0511  -15.6247 C   0  0  0  0  0  0  0  0  0  0  0  0
  -19.0969   33.6494  -17.1090 C   0  0  0  0  0  0  0  0  0  0  0  0
  -21.6039   33.8957  -16.9376 N   0  0  0  0  0  0  0  0  0  0  0  0
  -24.1491   32.4907  -15.7174 C   0  0  0  0  0  0  0  0  0  0  0  0
  -18.0140   34.0584  -17.5088 O   0  0  0  0  0  0  0  0  0  0  0  0
  -20.4210   34.4254  -17.4269 C   0  0  0  0  0  0  0  0  0  0  0  0
  -20.4088   35.4597  -18.0825 O   0  0  0  0  0  0  0  0  0  0  0  0
  -22.9000   30.1876  -14.4239 H   0  0  0  0  0  0  0  0  0  0  0  0
  -18.3691   31.9655  -16.1392 H   0  0  0  0  0  0  0  0  0  0  0  0
  -22.4592   34.3929  -17.1405 H   0  0  0  0  0  0  0  0  0  0  0  0
  -24.4652   32.5388  -16.7643 H   0  0  0  0  0  0  0  0  0  0  0  0
  -24.8170   31.7995  -15.1931 H   0  0  0  0  0  0  0  0  0  0  0  0
  -24.2704   33.4830  -15.2710 H   0  0  0  0  0  0  0  0  0  0  0  0
  1  2  1  0  0  0  0
  1  3  1  0  0  0  0
  2  4  1  0  0  0  0
  2  5  2  0  0  0  0
  3  6  2  0  0  0  0
  3 13  1  0  0  0  0
  4  7  1  0  0  0  0
  4 14  1  0  0  0  0
  5  8  1  0  0  0  0
  5  6  1  0  0  0  0
  6  9  1  0  0  0  0
  7 10  2  0  0  0  0
  7 11  1  0  0  0  0
  8 11  1  0  0  0  0
  8 15  1  0  0  0  0
  9 16  1  0  0  0  0
  9 17  1  0  0  0  0
  9 18  1  0  0  0  0
 11 12  2  0  0  0  0
M  END
>  <Column 1>
Cc1csc2[nH]c(=O)c(=O)[nH]c12 ZINC000000015867

>  <Total Molweight>
182.203

>  <cLogP>
-0.2767

>  <cLogS>
-2.24

>  <H-Acceptors>
4

>  <H-Donors>
2

>  <Total Surface Area>
126.38

>  <MMFF94 Energy>
40.271

> <Gold.Version>
5.8.1

> <Gold.Id.Protein>
ID|2FQT|mol2

> <Gold.PLP.Fitness>
41.6536

> <Gold.PLP.PLP>
-30.8250

> <Gold.PLP.part.hbond>
-4.4934

> <Gold.PLP.part.metal>
0.0000

> <Gold.PLP.part.buried>
-4.6451

> <Gold.PLP.part.nonpolar>
-23.2844

> <Gold.PLP.part.repulsive>
0.2615

> <Gold.PLP.ligand.clash>
0.0000

> <Gold.PLP.ligand.torsion>
0.0000

> <Gold.PLP.Chemscore.Hbond>
3.2868

> <Gold.PLP.Chemscore.CHOScore>
0.3227

> <Gold.PLP.Chemscore.Metal>
0.0000

> <Gold.Chemscore.Hbonds>
donor molecule, donor type, donor heavy atom, donor atom, acceptor molecule, acceptor atom, score
      L1  H     4    14       P1   606  0.36
      P1  H  1223  2649       L1    12  1.00
      P1  H  1239  3336       L1    12  1.00
      P1  H  1466  3954       L1    10  0.93
      L1  C     3    13       P1   427  0.32

> <Gold.PLP.Chemscore.Internal.Correction>
0.0000

> <Gold.Protein.RotatedTorsions>
[ 3412  950  949  948 ] final  -50.13 input   60.00 | X-H torsion
[ 3476 1244 1243 1240 ] final   83.20 input   60.00 | X-H torsion
[ 2649 1223 1224 1225 ] final  -36.41 input   60.00 | X-H torsion
[ 4380 1912 1911 1909 ] final  144.14 input   60.00 | X-H torsion
[ 3084  621  620  617 ] final  -81.67 input   60.00 | X-H torsion

> <Gold.Protein.ActiveResidues>
 HIS54   GLU57   HIS58   ALA61   PHE62   ILE64   ARG65   ASP75   ILE76   ILE77  
 ASP78   ILE79   SER80   PRO81   ILE118  PRO119  ALA120  ALA121  ASN122  LYS124 
 GLN125  CYS126  GLY127  CO701   VAL4    GLU5    SER6    PHE7    GLU8    LEU9   
 HIS11   ARG20   HIS21   CYS22   GLY23   VAL24   HIS25   LYS35   ARG39   MET82  
 GLY83   CYS84   TYR89  

> <Gold.Protein.RotatedAtoms>
  -20.8681   37.2579  -17.3308 H   0  0  0  0  0  0  0  0  0  0  0  0  # atno 2649 bound_to 1223
  -20.2661   38.7717  -17.0259 H   0  0  0  0  0  0  0  0  0  0  0  0  # atno 2650 bound_to 1223
  -19.6585   27.8458  -13.9067 H   0  0  0  0  0  0  0  0  0  0  0  0  # atno 3084 bound_to 621 
  -28.9537   38.9125  -28.2681 H   0  0  0  0  0  0  0  0  0  0  0  0  # atno 3412 bound_to 950 
  -28.0141   37.5676  -28.5047 H   0  0  0  0  0  0  0  0  0  0  0  0  # atno 3413 bound_to 950 
  -27.8627   38.8727  -29.5153 H   0  0  0  0  0  0  0  0  0  0  0  0  # atno 3414 bound_to 950 
  -22.9044   31.5922  -20.8988 H   0  0  0  0  0  0  0  0  0  0  0  0  # atno 3476 bound_to 1244
  -19.7477   31.8743  -19.6612 H   0  0  0  0  0  0  0  0  0  0  0  0  # atno 4380 bound_to 1912
  -24.1573   32.6119  -21.0946 LP  0  0  0  0  0  0  0  0  0  0  0  0  # atno 4866 bound_to 1244
  -23.9368   31.8494  -19.6675 LP  0  0  0  0  0  0  0  0  0  0  0  0  # atno 4867 bound_to 1244
  -21.4765   38.1583  -16.0955 LP  0  0  0  0  0  0  0  0  0  0  0  0  # atno 4874 bound_to 1223
  -21.0647   31.2631  -18.9262 LP  0  0  0  0  0  0  0  0  0  0  0  0  # atno 4875 bound_to 1912
  -20.6279   30.7252  -20.4049 LP  0  0  0  0  0  0  0  0  0  0  0  0  # atno 4876 bound_to 1912
  -18.0932   27.5352  -13.5884 LP  0  0  0  0  0  0  0  0  0  0  0  0  # atno 4881 bound_to 621 
  -18.8246   28.8310  -12.9158 LP  0  0  0  0  0  0  0  0  0  0  0  0  # atno 4882 bound_to 621 

$$$$
Compound 95|Decoys_protonated|sdf|95|dock3
  -GOLD-   6122416183D 1   1.00000     0.00000

 17 17  0  0  0  0  0  0  0  0  1 V2000
  -17.4442   35.1469  -17.1149 O   0  0  0  0  0  0  0  0  0  0  0  0
  -17.3865   36.0396  -16.2770 C   0  0  0  0  0  0  0  0  0  0  0  0
  -18.0757   37.2113  -16.4038 N   0  0  0  0  0  0  0  0  0  0  0  0
  -16.6230   35.9255  -15.1478 N   0  0  0  0  0  0  0  0  0  0  0  0
  -18.0571   38.2492  -15.5075 C   0  0  0  0  0  0  0  0  0  0  0  0
  -16.5341   36.9006  -14.1910 C   0  0  0  0  0  0  0  0  0  0  0  0
  -18.7104   39.2701  -15.7027 O   0  0  0  0  0  0  0  0  0  0  0  0
  -17.2023   38.0573  -14.2970 C   0  0  0  0  0  0  0  0  0  0  0  0
  -17.1004   39.0614  -13.2950 C   0  0  0  0  0  0  0  0  0  0  0  0
  -17.0144   39.9097  -12.4488 C   0  0  0  0  0  0  0  0  0  0  0  0
  -16.8980   40.9333  -11.4104 C   0  0  0  0  0  0  0  0  0  0  0  0
  -18.6471   37.3235  -17.2262 H   0  0  0  0  0  0  0  0  0  0  0  0
  -16.1092   35.0568  -15.0491 H   0  0  0  0  0  0  0  0  0  0  0  0
  -15.8908   36.6793  -13.3442 H   0  0  0  0  0  0  0  0  0  0  0  0
  -17.8569   41.0868  -10.9063 H   0  0  0  0  0  0  0  0  0  0  0  0
  -16.5834   41.8892  -11.8399 H   0  0  0  0  0  0  0  0  0  0  0  0
  -16.1609   40.6407  -10.6565 H   0  0  0  0  0  0  0  0  0  0  0  0
  1  2  2  0  0  0  0
  2  3  1  0  0  0  0
  2  4  1  0  0  0  0
  3  5  1  0  0  0  0
  3 12  1  0  0  0  0
  4  6  1  0  0  0  0
  4 13  1  0  0  0  0
  5  7  2  0  0  0  0
  5  8  1  0  0  0  0
  6  8  2  0  0  0  0
  6 14  1  0  0  0  0
  8  9  1  0  0  0  0
  9 10  3  0  0  0  0
 10 11  1  0  0  0  0
 11 15  1  0  0  0  0
 11 16  1  0  0  0  0
 11 17  1  0  0  0  0
M  END
>  <Column 1>
CC#Cc1c[nH]c(=O)[nH]c1=O ZINC000000016355

>  <Total Molweight>
150.137

>  <cLogP>
-0.06

>  <cLogS>
-3.562

>  <H-Acceptors>
4

>  <H-Donors>
2

>  <Total Surface Area>
125.19

>  <MMFF94 Energy>
-70.648

> <Gold.Version>
5.8.1

> <Gold.Id.Protein>
ID|2FQT|mol2

> <Gold.PLP.Fitness>
34.7649

> <Gold.PLP.PLP>
-23.3235

> <Gold.PLP.part.hbond>
-3.5267

> <Gold.PLP.part.metal>
0.0000

> <Gold.PLP.part.buried>
-3.8504

> <Gold.PLP.part.nonpolar>
-16.6398

> <Gold.PLP.part.repulsive>
0.2120

> <Gold.PLP.ligand.clash>
0.0000

> <Gold.PLP.ligand.torsion>
0.0000

> <Gold.PLP.Chemscore.Hbond>
2.8153

> <Gold.PLP.Chemscore.CHOScore>
0.9986

> <Gold.PLP.Chemscore.Metal>
0.0000

> <Gold.Chemscore.Hbonds>
donor molecule, donor type, donor heavy atom, donor atom, acceptor molecule, acceptor atom, score
      L1  H     4    13       P1   595  0.93
      P1  H  1223  2649       L1     7  0.90
      P1  H  1466  3954       L1     1  0.99
      L1  C     6    14       P1   587  1.00

> <Gold.PLP.Chemscore.Internal.Correction>
0.0000

> <Gold.Protein.RotatedTorsions>
[ 3412  950  949  948 ] final   12.85 input   60.00 | X-H torsion
[ 3476 1244 1243 1240 ] final  112.80 input   60.00 | X-H torsion
[ 2649 1223 1224 1225 ] final  104.07 input   60.00 | X-H torsion
[ 4380 1912 1911 1909 ] final   18.75 input   60.00 | X-H torsion
[ 3084  621  620  617 ] final  -67.65 input   60.00 | X-H torsion

> <Gold.Protein.ActiveResidues>
 HIS54   GLU57   HIS58   ALA61   PHE62   ILE64   ARG65   ASP75   ILE76   ILE77  
 ASP78   ILE79   SER80   PRO81   ILE118  PRO119  ALA120  ALA121  ASN122  LYS124 
 GLN125  CYS126  GLY127  CO701   VAL4    GLU5    SER6    PHE7    GLU8    LEU9   
 HIS11   ARG20   HIS21   CYS22   GLY23   VAL24   HIS25   LYS35   ARG39   MET82  
 GLY83   CYS84   TYR89  

> <Gold.Protein.RotatedAtoms>
  -20.4285   38.9087  -16.7599 H   0  0  0  0  0  0  0  0  0  0  0  0  # atno 2649 bound_to 1223
  -21.5652   37.8458  -16.1896 H   0  0  0  0  0  0  0  0  0  0  0  0  # atno 2650 bound_to 1223
  -19.7363   28.0323  -13.8004 H   0  0  0  0  0  0  0  0  0  0  0  0  # atno 3084 bound_to 621 
  -28.6621   37.9894  -28.0182 H   0  0  0  0  0  0  0  0  0  0  0  0  # atno 3412 bound_to 950 
  -27.5963   38.0292  -29.2870 H   0  0  0  0  0  0  0  0  0  0  0  0  # atno 3413 bound_to 950 
  -28.5720   39.3342  -28.9829 H   0  0  0  0  0  0  0  0  0  0  0  0  # atno 3414 bound_to 950 
  -22.9410   31.4318  -20.4497 H   0  0  0  0  0  0  0  0  0  0  0  0  # atno 3476 bound_to 1244
  -21.1042   31.1996  -18.9736 H   0  0  0  0  0  0  0  0  0  0  0  0  # atno 4380 bound_to 1912
  -23.7975   32.4594  -21.3762 LP  0  0  0  0  0  0  0  0  0  0  0  0  # atno 4866 bound_to 1244
  -24.2598   32.1633  -19.8383 LP  0  0  0  0  0  0  0  0  0  0  0  0  # atno 4867 bound_to 1244
  -20.6297   37.4441  -17.4820 LP  0  0  0  0  0  0  0  0  0  0  0  0  # atno 4874 bound_to 1223
  -20.5556   30.7612  -20.4415 LP  0  0  0  0  0  0  0  0  0  0  0  0  # atno 4875 bound_to 1912
  -19.7709   31.9066  -19.5821 LP  0  0  0  0  0  0  0  0  0  0  0  0  # atno 4876 bound_to 1912
  -18.2333   27.4133  -13.7242 LP  0  0  0  0  0  0  0  0  0  0  0  0  # atno 4881 bound_to 621 
  -18.6061   28.7650  -12.8872 LP  0  0  0  0  0  0  0  0  0  0  0  0  # atno 4882 bound_to 621 

$$$$
Compound 96|Decoys_protonated|sdf|96|dock10
  -GOLD-   6122416183D 1   1.00000     0.00000

 16 16  0  0  0  0  0  0  0  0  1 V2000
  -21.3946   29.9972  -15.1079 Cl  0  0  0  0  0  0  0  0  0  0  0  0
  -22.4884   31.1838  -15.7376 C   0  0  0  0  0  0  0  0  0  0  0  0
  -23.5412   30.7096  -16.6086 C   0  0  0  0  0  0  0  0  0  0  0  0
  -22.3510   32.4643  -15.3685 C   0  0  0  0  0  0  0  0  0  0  0  0
  -24.8221   31.4731  -16.7216 C   0  0  0  0  0  0  0  0  0  0  0  0
  -23.4296   29.5900  -17.3405 C   0  0  0  0  0  0  0  0  0  0  0  0
  -25.0541   32.4790  -16.0583 O   0  0  0  0  0  0  0  0  0  0  0  0
  -25.7501   30.9726  -17.5967 N   0  0  0  0  0  0  0  0  0  0  0  0
  -24.4324   29.1642  -18.1678 N   0  0  0  0  0  0  0  0  0  0  0  0
  -25.6153   29.8299  -18.3301 C   0  0  0  0  0  0  0  0  0  0  0  0
  -26.4928   29.4204  -19.0812 O   0  0  0  0  0  0  0  0  0  0  0  0
  -21.5517   32.7752  -14.7026 H   0  0  0  0  0  0  0  0  0  0  0  0
  -23.0167   33.2393  -15.7338 H   0  0  0  0  0  0  0  0  0  0  0  0
  -22.5368   28.9711  -17.3230 H   0  0  0  0  0  0  0  0  0  0  0  0
  -26.6164   31.4791  -17.6885 H   0  0  0  0  0  0  0  0  0  0  0  0
  -24.3270   28.3167  -18.7151 H   0  0  0  0  0  0  0  0  0  0  0  0
  1  2  1  0  0  0  0
  2  3  1  0  0  0  0
  2  4  2  0  0  0  0
  3  5  1  0  0  0  0
  3  6  2  0  0  0  0
  4 12  1  0  0  0  0
  4 13  1  0  0  0  0
  5  7  2  0  0  0  0
  5  8  1  0  0  0  0
  6  9  1  0  0  0  0
  6 14  1  0  0  0  0
  8 10  1  0  0  0  0
  8 15  1  0  0  0  0
  9 10  1  0  0  0  0
  9 16  1  0  0  0  0
 10 11  2  0  0  0  0
M  END
>  <Column 1>
C=C(Cl)c1c[nH]c(=O)[nH]c1=O ZINC000000016358

>  <Total Molweight>
172.571

>  <cLogP>
0.1295

>  <cLogS>
-2.276

>  <H-Acceptors>
4

>  <H-Donors>
2

>  <Total Surface Area>
121.3

>  <MMFF94 Energy>
-72.393

> <Gold.Version>
5.8.1

> <Gold.Id.Protein>
ID|2FQT|mol2

> <Gold.PLP.Fitness>
32.8049

> <Gold.PLP.PLP>
-26.0851

> <Gold.PLP.part.hbond>
0.0000

> <Gold.PLP.part.metal>
-1.0000

> <Gold.PLP.part.buried>
-4.0722

> <Gold.PLP.part.nonpolar>
-21.5684

> <Gold.PLP.part.repulsive>
0.5289

> <Gold.PLP.ligand.clash>
0.0000

> <Gold.PLP.ligand.torsion>
0.2725

> <Gold.PLP.Chemscore.Hbond>
0.4217

> <Gold.PLP.Chemscore.CHOScore>
0.0000

> <Gold.PLP.Chemscore.Metal>
0.9998

> <Gold.Chemscore.Hbonds>
donor molecule, donor type, donor heavy atom, donor atom, acceptor molecule, acceptor atom, score
      L1  H     8    15       P1   437  0.42
      P1  M  1222  1222       L1    11  1.00

> <Gold.PLP.Chemscore.Internal.Correction>
0.0012

> <Gold.Protein.RotatedTorsions>
[ 3412  950  949  948 ] final -155.10 input   60.00 | X-H torsion
[ 3476 1244 1243 1240 ] final -159.73 input   60.00 | X-H torsion
[ 2649 1223 1224 1225 ] final  -69.51 input   60.00 | X-H torsion
[ 4380 1912 1911 1909 ] final   78.55 input   60.00 | X-H torsion
[ 3084  621  620  617 ] final  -81.55 input   60.00 | X-H torsion

> <Gold.Protein.ActiveResidues>
 HIS54   GLU57   HIS58   ALA61   PHE62   ILE64   ARG65   ASP75   ILE76   ILE77  
 ASP78   ILE79   SER80   PRO81   ILE118  PRO119  ALA120  ALA121  ASN122  LYS124 
 GLN125  CYS126  GLY127  CO701   VAL4    GLU5    SER6    PHE7    GLU8    LEU9   
 HIS11   ARG20   HIS21   CYS22   GLY23   VAL24   HIS25   LYS35   ARG39   MET82  
 GLY83   CYS84   TYR89  

> <Gold.Protein.RotatedAtoms>
  -21.2522   37.1949  -16.9491 H   0  0  0  0  0  0  0  0  0  0  0  0  # atno 2649 bound_to 1223
  -20.1709   38.3729  -17.3852 H   0  0  0  0  0  0  0  0  0  0  0  0  # atno 2650 bound_to 1223
  -19.6594   27.8473  -13.9060 H   0  0  0  0  0  0  0  0  0  0  0  0  # atno 3084 bound_to 621 
  -28.0176   39.0596  -29.4541 H   0  0  0  0  0  0  0  0  0  0  0  0  # atno 3412 bound_to 950 
  -28.9532   38.7012  -28.1337 H   0  0  0  0  0  0  0  0  0  0  0  0  # atno 3413 bound_to 950 
  -27.8597   37.5920  -28.7003 H   0  0  0  0  0  0  0  0  0  0  0  0  # atno 3414 bound_to 950 
  -23.8964   31.8226  -19.6685 H   0  0  0  0  0  0  0  0  0  0  0  0  # atno 3476 bound_to 1244
  -20.4038   31.8110  -18.8906 H   0  0  0  0  0  0  0  0  0  0  0  0  # atno 4380 bound_to 1912
  -22.9079   31.6104  -20.9436 LP  0  0  0  0  0  0  0  0  0  0  0  0  # atno 4866 bound_to 1244
  -24.1872   32.6188  -21.0576 LP  0  0  0  0  0  0  0  0  0  0  0  0  # atno 4867 bound_to 1244
  -21.1919   38.6133  -16.1177 LP  0  0  0  0  0  0  0  0  0  0  0  0  # atno 4874 bound_to 1223
  -21.1857   30.6715  -19.7497 LP  0  0  0  0  0  0  0  0  0  0  0  0  # atno 4875 bound_to 1912
  -19.8461   31.3806  -20.3575 LP  0  0  0  0  0  0  0  0  0  0  0  0  # atno 4876 bound_to 1912
  -18.0942   27.5340  -13.5896 LP  0  0  0  0  0  0  0  0  0  0  0  0  # atno 4881 bound_to 621 
  -18.8227   28.8307  -12.9155 LP  0  0  0  0  0  0  0  0  0  0  0  0  # atno 4882 bound_to 621 

$$$$
Compound 97|Decoys_protonated|sdf|97|dock2
  -GOLD-   6122416183D 1   1.00000     0.00000

 30 31  0  0  0  0  0  0  0  0  3 V2000
  -20.3513   34.5085  -17.6476 F   0  0  0  0  0  0  0  0  0  0  0  0
  -19.0292   34.7010  -17.8025 C   0  0  0  0  0  0  0  0  0  0  0  0
  -18.2824   35.3966  -16.8484 C   0  0  0  0  0  0  0  0  0  0  0  0
  -18.4318   34.2353  -18.9719 C   0  0  0  0  0  0  0  0  0  0  0  0
  -16.9696   35.6436  -17.0691 N   0  0  0  0  0  0  0  0  0  0  0  0
  -18.8406   35.8851  -15.6732 N   0  0  0  0  0  0  0  0  0  0  0  0
  -17.0703   34.4690  -19.1621 N   0  3  0  0  0  0  0  0  0  0  0  0
  -19.1432   33.4890  -19.9277 N   0  0  0  0  0  0  0  0  0  0  0  0
  -16.3590   35.1888  -18.1914 C   0  0  0  0  0  0  0  0  0  0  0  0
  -19.5949   35.0002  -14.7825 C   0  0  0  0  0  0  0  0  0  0  0  0
  -18.1846   37.0118  -15.0033 C   0  0  0  0  0  0  0  0  0  0  0  0
  -16.4860   34.0386  -20.2349 O   0  5  0  0  0  0  0  0  0  0  0  0
  -15.0139   35.4481  -18.3666 N   0  0  0  0  0  0  0  0  0  0  0  0
  -18.6527   34.4290  -13.7183 C   0  0  0  0  0  0  0  0  0  0  0  0
  -17.2117   36.4945  -13.9425 C   0  0  0  0  0  0  0  0  0  0  0  0
  -17.9128   35.5415  -12.9725 C   0  0  0  0  0  0  0  0  0  0  0  0
  -19.8055   32.7941  -19.6095 H   0  0  0  0  0  0  0  0  0  0  0  0
  -19.3669   34.0364  -20.7611 H   0  0  0  0  0  0  0  0  0  0  0  0
  -20.3852   35.5834  -14.2930 H   0  0  0  0  0  0  0  0  0  0  0  0
  -20.0981   34.1774  -15.2952 H   0  0  0  0  0  0  0  0  0  0  0  0
  -18.9557   37.6211  -14.5142 H   0  0  0  0  0  0  0  0  0  0  0  0
  -17.6789   37.6854  -15.7055 H   0  0  0  0  0  0  0  0  0  0  0  0
  -14.5092   35.9653  -17.6676 H   0  0  0  0  0  0  0  0  0  0  0  0
  -14.5938   35.0843  -19.2146 H   0  0  0  0  0  0  0  0  0  0  0  0
  -19.2231   33.8234  -13.0055 H   0  0  0  0  0  0  0  0  0  0  0  0
  -17.9202   33.7648  -14.1937 H   0  0  0  0  0  0  0  0  0  0  0  0
  -16.3772   35.9693  -14.4226 H   0  0  0  0  0  0  0  0  0  0  0  0
  -16.7846   37.3376  -13.3882 H   0  0  0  0  0  0  0  0  0  0  0  0
  -17.1797   35.1049  -12.2852 H   0  0  0  0  0  0  0  0  0  0  0  0
  -18.6281   36.1065  -12.3623 H   0  0  0  0  0  0  0  0  0  0  0  0
  1  2  1  0  0  0  0
  2  3  2  0  0  0  0
  2  4  1  0  0  0  0
  3  5  1  0  0  0  0
  3  6  1  0  0  0  0
  4  7  2  0  0  0  0
  4  8  1  0  0  0  0
  5  9  2  0  0  0  0
  6 10  1  0  0  0  0
  6 11  1  0  0  0  0
  7 12  1  0  0  0  0
  7  9  1  0  0  0  0
  8 17  1  0  0  0  0
  8 18  1  0  0  0  0
  9 13  1  0  0  0  0
 10 14  1  0  0  0  0
 10 19  1  0  0  0  0
 10 20  1  0  0  0  0
 11 15  1  0  0  0  0
 11 21  1  0  0  0  0
 11 22  1  0  0  0  0
 13 23  1  0  0  0  0
 13 24  1  0  0  0  0
 14 16  1  0  0  0  0
 14 25  1  0  0  0  0
 14 26  1  0  0  0  0
 15 16  1  0  0  0  0
 15 27  1  0  0  0  0
 15 28  1  0  0  0  0
 16 29  1  0  0  0  0
 16 30  1  0  0  0  0
M  CHG  1   7   1
M  CHG  1  12  -1
M  END
>  <Column 1>
Nc1nc(N2CCCCC2)c(F)c(N)[n+]1[O-] ZINC000000016415

>  <Total Molweight>
227.242

>  <cLogP>
0.2724

>  <cLogS>
-5.775

>  <H-Acceptors>
5

>  <H-Donors>
2

>  <Total Surface Area>
163.06

>  <MMFF94 Energy>
92.268

> <Gold.Version>
5.8.1

> <Gold.Id.Protein>
ID|2FQT|mol2

> <Gold.PLP.Fitness>
47.1898

> <Gold.PLP.PLP>
-39.1535

> <Gold.PLP.part.hbond>
-4.3728

> <Gold.PLP.part.metal>
0.0000

> <Gold.PLP.part.buried>
-6.5237

> <Gold.PLP.part.nonpolar>
-30.6066

> <Gold.PLP.part.repulsive>
0.3908

> <Gold.PLP.ligand.clash>
0.0000

> <Gold.PLP.ligand.torsion>
0.5859

> <Gold.PLP.Chemscore.Hbond>
2.6832

> <Gold.PLP.Chemscore.CHOScore>
0.0000

> <Gold.PLP.Chemscore.Metal>
0.0000

> <Gold.Chemscore.Hbonds>
donor molecule, donor type, donor heavy atom, donor atom, acceptor molecule, acceptor atom, score
      L1  H     8    17       P1  1912  0.98
      L1  H     8    18       P1  1237  0.94
      L1  H    13    23       P1  1396  0.76

> <Gold.PLP.Chemscore.Internal.Correction>
1.1585

> <Gold.Protein.RotatedTorsions>
[ 3412  950  949  948 ] final   91.92 input   60.00 | X-H torsion
[ 3476 1244 1243 1240 ] final  149.33 input   60.00 | X-H torsion
[ 2649 1223 1224 1225 ] final  -65.53 input   60.00 | X-H torsion
[ 4380 1912 1911 1909 ] final  -44.99 input   60.00 | X-H torsion
[ 3084  621  620  617 ] final   46.32 input   60.00 | X-H torsion

> <Gold.Protein.ActiveResidues>
 HIS54   GLU57   HIS58   ALA61   PHE62   ILE64   ARG65   ASP75   ILE76   ILE77  
 ASP78   ILE79   SER80   PRO81   ILE118  PRO119  ALA120  ALA121  ASN122  LYS124 
 GLN125  CYS126  GLY127  CO701   VAL4    GLU5    SER6    PHE7    GLU8    LEU9   
 HIS11   ARG20   HIS21   CYS22   GLY23   VAL24   HIS25   LYS35   ARG39   MET82  
 GLY83   CYS84   TYR89  

> <Gold.Protein.RotatedAtoms>
  -21.2102   37.1871  -17.0002 H   0  0  0  0  0  0  0  0  0  0  0  0  # atno 2649 bound_to 1223
  -20.1702   38.4293  -17.3499 H   0  0  0  0  0  0  0  0  0  0  0  0  # atno 2650 bound_to 1223
  -18.7008   28.7924  -12.8975 H   0  0  0  0  0  0  0  0  0  0  0  0  # atno 3084 bound_to 621 
  -27.7968   37.6237  -28.7940 H   0  0  0  0  0  0  0  0  0  0  0  0  # atno 3412 bound_to 950 
  -28.0968   39.1334  -29.4089 H   0  0  0  0  0  0  0  0  0  0  0  0  # atno 3413 bound_to 950 
  -28.9370   38.5957  -28.0852 H   0  0  0  0  0  0  0  0  0  0  0  0  # atno 3414 bound_to 950 
  -23.2407   31.4460  -19.9453 H   0  0  0  0  0  0  0  0  0  0  0  0  # atno 3476 bound_to 1244
  -21.1583   30.6599  -19.8000 H   0  0  0  0  0  0  0  0  0  0  0  0  # atno 4380 bound_to 1912
  -23.3169   32.1189  -21.4250 LP  0  0  0  0  0  0  0  0  0  0  0  0  # atno 4866 bound_to 1244
  -24.4385   32.4896  -20.2975 LP  0  0  0  0  0  0  0  0  0  0  0  0  # atno 4867 bound_to 1244
  -21.2339   38.5654  -16.1021 LP  0  0  0  0  0  0  0  0  0  0  0  0  # atno 4874 bound_to 1223
  -19.8195   31.4212  -20.3254 LP  0  0  0  0  0  0  0  0  0  0  0  0  # atno 4875 bound_to 1912
  -20.4525   31.7901  -18.8660 LP  0  0  0  0  0  0  0  0  0  0  0  0  # atno 4876 bound_to 1912
  -19.7143   27.9516  -13.8535 LP  0  0  0  0  0  0  0  0  0  0  0  0  # atno 4881 bound_to 621 
  -18.1679   27.4613  -13.6671 LP  0  0  0  0  0  0  0  0  0  0  0  0  # atno 4882 bound_to 621 

$$$$
Compound 98|Decoys_protonated|sdf|98|dock10
  -GOLD-   6122416183D 1   1.00000     0.00000

 31 32  0  0  0  0  0  0  0  0  1 V2000
  -18.1952   33.3387  -17.4478 O   0  0  0  0  0  0  0  0  0  0  0  0
  -19.4730   33.2283  -16.9576 C   0  0  0  0  0  0  0  0  0  0  0  0
  -18.2852   34.4906  -18.3202 C   0  0  0  0  0  0  0  0  0  0  0  0
  -20.2663   34.3444  -17.1939 C   0  0  0  0  0  0  0  0  0  0  0  0
  -19.9396   32.1070  -16.2999 C   0  0  0  0  0  0  0  0  0  0  0  0
  -19.4455   35.3995  -17.8534 C   0  0  1  0  0  0  0  0  0  0  0  0
  -21.6014   34.3480  -16.8199 C   0  0  0  0  0  0  0  0  0  0  0  0
  -21.2722   32.1024  -15.8925 C   0  0  0  0  0  0  0  0  0  0  0  0
  -18.9447   36.4296  -16.9239 N   0  0  0  0  0  0  0  0  0  0  0  0
  -22.3236   35.4584  -17.1480 O   0  0  0  0  0  0  0  0  0  0  0  0
  -22.0959   33.2144  -16.1624 C   0  0  0  0  0  0  0  0  0  0  0  0
  -21.9041   31.0779  -15.2371 O   0  0  0  0  0  0  0  0  0  0  0  0
  -18.3988   37.4949  -17.7582 O   0  0  0  0  0  0  0  0  0  0  0  0
  -23.5019   35.7091  -16.3938 C   0  0  0  0  0  0  0  0  0  0  0  0
  -21.1179   29.9312  -14.9355 C   0  0  0  0  0  0  0  0  0  0  0  0
  -17.7952   38.4650  -16.9056 C   0  0  0  0  0  0  0  0  0  0  0  0
  -18.4703   34.1204  -19.3381 H   0  0  0  0  0  0  0  0  0  0  0  0
  -17.3181   35.0060  -18.3347 H   0  0  0  0  0  0  0  0  0  0  0  0
  -19.2660   31.2763  -16.1369 H   0  0  0  0  0  0  0  0  0  0  0  0
  -19.9350   35.8517  -18.7231 H   0  0  0  0  0  0  0  0  0  0  0  0
  -18.0975   36.0842  -16.4736 H   0  0  0  0  0  0  0  0  0  0  0  0
  -23.1314   33.1558  -15.8417 H   0  0  0  0  0  0  0  0  0  0  0  0
  -24.2452   34.9207  -16.5508 H   0  0  0  0  0  0  0  0  0  0  0  0
  -23.9334   36.6488  -16.7514 H   0  0  0  0  0  0  0  0  0  0  0  0
  -23.2727   35.8323  -15.3300 H   0  0  0  0  0  0  0  0  0  0  0  0
  -20.7718   29.4390  -15.8503 H   0  0  0  0  0  0  0  0  0  0  0  0
  -21.7544   29.2223  -14.3970 H   0  0  0  0  0  0  0  0  0  0  0  0
  -20.2782   30.1881  -14.2813 H   0  0  0  0  0  0  0  0  0  0  0  0
  -18.5225   38.8691  -16.1945 H   0  0  0  0  0  0  0  0  0  0  0  0
  -16.9489   38.0235  -16.3698 H   0  0  0  0  0  0  0  0  0  0  0  0
  -17.4256   39.2839  -17.5283 H   0  0  0  0  0  0  0  0  0  0  0  0
  1  2  1  0  0  0  0
  1  3  1  0  0  0  0
  2  4  2  0  0  0  0
  2  5  1  0  0  0  0
  3  6  1  0  0  0  0
  3 17  1  0  0  0  0
  3 18  1  0  0  0  0
  4  7  1  0  0  0  0
  4  6  1  0  0  0  0
  5  8  2  0  0  0  0
  5 19  1  0  0  0  0
  6  9  1  0  0  0  0
  6 20  1  0  0  0  0
  7 10  1  0  0  0  0
  7 11  2  0  0  0  0
  8 12  1  0  0  0  0
  8 11  1  0  0  0  0
  9 13  1  0  0  0  0
  9 21  1  0  0  0  0
 10 14  1  0  0  0  0
 11 22  1  0  0  0  0
 12 15  1  0  0  0  0
 13 16  1  0  0  0  0
 14 23  1  0  0  0  0
 14 24  1  0  0  0  0
 14 25  1  0  0  0  0
 15 26  1  0  0  0  0
 15 27  1  0  0  0  0
 15 28  1  0  0  0  0
 16 29  1  0  0  0  0
 16 30  1  0  0  0  0
 16 31  1  0  0  0  0
M  END
>  <Column 1>
CON[C@H]1COc2cc(OC)cc(OC)c21 ZINC000000017230

>  <Total Molweight>
225.243

>  <cLogP>
0.7083

>  <cLogS>
-1.75

>  <H-Acceptors>
5

>  <H-Donors>
1

>  <Total Surface Area>
174.26

>  <MMFF94 Energy>
61.28

> <Gold.Version>
5.8.1

> <Gold.Id.Protein>
ID|2FQT|mol2

> <Gold.PLP.Fitness>
42.2491

> <Gold.PLP.PLP>
-38.5170

> <Gold.PLP.part.hbond>
-5.0000

> <Gold.PLP.part.metal>
0.0000

> <Gold.PLP.part.buried>
-4.5430

> <Gold.PLP.part.nonpolar>
-28.9169

> <Gold.PLP.part.repulsive>
0.2502

> <Gold.PLP.ligand.clash>
0.0000

> <Gold.PLP.ligand.torsion>
0.4686

> <Gold.PLP.Chemscore.Hbond>
1.5440

> <Gold.PLP.Chemscore.CHOScore>
0.0000

> <Gold.PLP.Chemscore.Metal>
0.0000

> <Gold.Chemscore.Hbonds>
donor molecule, donor type, donor heavy atom, donor atom, acceptor molecule, acceptor atom, score
      P1  H  1223  2649       L1    10  1.00
      P1  H  1466  3954       L1     1  0.54

> <Gold.PLP.Chemscore.Internal.Correction>
0.0374

> <Gold.Protein.RotatedTorsions>
[ 3412  950  949  948 ] final  134.59 input   60.00 | X-H torsion
[ 3476 1244 1243 1240 ] final -110.51 input   60.00 | X-H torsion
[ 2649 1223 1224 1225 ] final  -75.78 input   60.00 | X-H torsion
[ 4380 1912 1911 1909 ] final  -66.54 input   60.00 | X-H torsion
[ 3084  621  620  617 ] final  -27.04 input   60.00 | X-H torsion

> <Gold.Protein.ActiveResidues>
 HIS54   GLU57   HIS58   ALA61   PHE62   ILE64   ARG65   ASP75   ILE76   ILE77  
 ASP78   ILE79   SER80   PRO81   ILE118  PRO119  ALA120  ALA121  ASN122  LYS124 
 GLN125  CYS126  GLY127  CO701   VAL4    GLU5    SER6    PHE7    GLU8    LEU9   
 HIS11   ARG20   HIS21   CYS22   GLY23   VAL24   HIS25   LYS35   ARG39   MET82  
 GLY83   CYS84   TYR89  

> <Gold.Protein.RotatedAtoms>
  -21.3143   37.2156  -16.8676 H   0  0  0  0  0  0  0  0  0  0  0  0  # atno 2649 bound_to 1223
  -20.1788   38.2813  -17.4350 H   0  0  0  0  0  0  0  0  0  0  0  0  # atno 2650 bound_to 1223
  -19.6646   28.5457  -13.4085 H   0  0  0  0  0  0  0  0  0  0  0  0  # atno 3084 bound_to 621 
  -27.5951   38.0530  -29.3036 H   0  0  0  0  0  0  0  0  0  0  0  0  # atno 3412 bound_to 950 
  -28.5906   39.3331  -28.9606 H   0  0  0  0  0  0  0  0  0  0  0  0  # atno 3413 bound_to 950 
  -28.6449   37.9667  -28.0239 H   0  0  0  0  0  0  0  0  0  0  0  0  # atno 3414 bound_to 950 
  -24.3710   32.3281  -20.0251 H   0  0  0  0  0  0  0  0  0  0  0  0  # atno 3476 bound_to 1244
  -20.9774   30.6261  -20.0978 H   0  0  0  0  0  0  0  0  0  0  0  0  # atno 4380 bound_to 1912
  -23.0445   31.4017  -20.1991 LP  0  0  0  0  0  0  0  0  0  0  0  0  # atno 4866 bound_to 1244
  -23.5726   32.3184  -21.4430 LP  0  0  0  0  0  0  0  0  0  0  0  0  # atno 4867 bound_to 1244
  -21.1229   38.6831  -16.1489 LP  0  0  0  0  0  0  0  0  0  0  0  0  # atno 4874 bound_to 1223
  -19.7146   31.6523  -20.0807 LP  0  0  0  0  0  0  0  0  0  0  0  0  # atno 4875 bound_to 1912
  -20.7396   31.5931  -18.8108 LP  0  0  0  0  0  0  0  0  0  0  0  0  # atno 4876 bound_to 1912
  -18.8112   27.2967  -14.0082 LP  0  0  0  0  0  0  0  0  0  0  0  0  # atno 4881 bound_to 621 
  -18.1004   28.3647  -12.9979 LP  0  0  0  0  0  0  0  0  0  0  0  0  # atno 4882 bound_to 621 

$$$$
Compound 99|Decoys_protonated|sdf|99|dock2
  -GOLD-   6122416183D 1   1.00000     0.00000

 38 40  0  0  0  0  0  0  0  0  3 V2000
  -18.1039   42.4445  -17.3158 O   0  0  0  0  0  0  0  0  0  0  0  0
  -18.5887   42.7034  -16.2068 N   0  3  0  0  0  0  0  0  0  0  0  0
  -19.5862   43.4057  -15.9981 O   0  5  0  0  0  0  0  0  0  0  0  0
  -17.9095   42.1570  -15.0388 C   0  0  0  0  0  0  0  0  0  0  0  0
  -17.5969   40.7790  -14.9528 C   0  0  0  0  0  0  0  0  0  0  0  0
  -17.5830   43.0695  -14.0291 C   0  0  0  0  0  0  0  0  0  0  0  0
  -16.8396   40.3301  -13.8337 C   0  0  0  0  0  0  0  0  0  0  0  0
  -18.0429   39.8114  -16.0238 C   0  0  0  0  0  0  0  0  0  0  0  0
  -16.8993   42.6121  -12.9129 C   0  0  0  0  0  0  0  0  0  0  0  0
  -16.5183   41.2659  -12.8155 C   0  0  0  0  0  0  0  0  0  0  0  0
  -16.4665   38.8524  -13.6894 C   0  0  0  0  0  0  0  0  0  0  0  0
  -16.5917   43.5100  -11.8868 N   0  0  0  0  0  0  0  0  0  0  0  0
  -15.7939   40.8607  -11.6867 N   0  0  0  0  0  0  0  0  0  0  0  0
  -17.6145   37.9527  -13.5045 N   0  0  0  0  0  0  0  0  0  0  0  0
  -15.9076   43.1538  -10.7452 C   0  0  0  0  0  0  0  0  0  0  0  0
  -15.4376   41.6850  -10.6470 C   0  0  0  0  0  0  0  0  0  0  0  0
  -18.3981   38.2643  -12.3019 C   0  0  0  0  0  0  0  0  0  0  0  0
  -17.1954   36.5598  -13.3156 C   0  0  0  0  0  0  0  0  0  0  0  0
  -15.6782   43.9641   -9.8574 O   0  0  0  0  0  0  0  0  0  0  0  0
  -14.7759   41.2919   -9.6959 O   0  0  0  0  0  0  0  0  0  0  0  0
  -19.2470   37.0153  -12.1184 C   0  0  0  0  0  0  0  0  0  0  0  0
  -18.4530   35.8934  -12.7787 C   0  0  0  0  0  0  0  0  0  0  0  0
  -17.8611   44.1169  -14.1212 H   0  0  0  0  0  0  0  0  0  0  0  0
  -18.4053   38.8786  -15.5795 H   0  0  0  0  0  0  0  0  0  0  0  0
  -17.2136   39.5963  -16.7045 H   0  0  0  0  0  0  0  0  0  0  0  0
  -18.8878   40.1889  -16.6069 H   0  0  0  0  0  0  0  0  0  0  0  0
  -15.7666   38.6974  -12.8617 H   0  0  0  0  0  0  0  0  0  0  0  0
  -15.9370   38.5819  -14.6126 H   0  0  0  0  0  0  0  0  0  0  0  0
  -16.8799   44.4785  -11.9323 H   0  0  0  0  0  0  0  0  0  0  0  0
  -15.4227   39.9111  -11.6664 H   0  0  0  0  0  0  0  0  0  0  0  0
  -19.0229   39.1542  -12.4260 H   0  0  0  0  0  0  0  0  0  0  0  0
  -17.7553   38.4078  -11.4240 H   0  0  0  0  0  0  0  0  0  0  0  0
  -16.8648   36.0997  -14.2520 H   0  0  0  0  0  0  0  0  0  0  0  0
  -16.3863   36.4761  -12.5788 H   0  0  0  0  0  0  0  0  0  0  0  0
  -20.2162   37.1271  -12.6187 H   0  0  0  0  0  0  0  0  0  0  0  0
  -19.4370   36.8102  -11.0600 H   0  0  0  0  0  0  0  0  0  0  0  0
  -19.0398   35.4539  -13.5938 H   0  0  0  0  0  0  0  0  0  0  0  0
  -18.2122   35.0950  -12.0694 H   0  0  0  0  0  0  0  0  0  0  0  0
  1  2  2  0  0  0  0
  2  3  1  0  0  0  0
  2  4  1  0  0  0  0
  4  5  2  0  0  0  0
  4  6  1  0  0  0  0
  5  7  1  0  0  0  0
  5  8  1  0  0  0  0
  6  9  2  0  0  0  0
  6 23  1  0  0  0  0
  7 10  2  0  0  0  0
  7 11  1  0  0  0  0
  8 24  1  0  0  0  0
  8 25  1  0  0  0  0
  8 26  1  0  0  0  0
  9 12  1  0  0  0  0
  9 10  1  0  0  0  0
 10 13  1  0  0  0  0
 11 14  1  0  0  0  0
 11 27  1  0  0  0  0
 11 28  1  0  0  0  0
 12 15  1  0  0  0  0
 12 29  1  0  0  0  0
 13 16  1  0  0  0  0
 13 30  1  0  0  0  0
 14 17  1  0  0  0  0
 14 18  1  0  0  0  0
 15 19  2  0  0  0  0
 15 16  1  0  0  0  0
 16 20  2  0  0  0  0
 17 21  1  0  0  0  0
 17 31  1  0  0  0  0
 17 32  1  0  0  0  0
 18 22  1  0  0  0  0
 18 33  1  0  0  0  0
 18 34  1  0  0  0  0
 21 22  1  0  0  0  0
 21 35  1  0  0  0  0
 21 36  1  0  0  0  0
 22 37  1  0  0  0  0
 22 38  1  0  0  0  0
M  CHG  1   2   1
M  CHG  1   3  -1
M  END
>  <Column 1>
Cc1c([N+](=O)[O-])cc2[nH]c(=O)c(=O)[nH]c2c1CN1CCCC1 ZINC000000017349

>  <Total Molweight>
304.305

>  <cLogP>
-0.7584

>  <cLogS>
-2.85

>  <H-Acceptors>
7

>  <H-Donors>
2

>  <Total Surface Area>
219.71

>  <MMFF94 Energy>
95.773

> <Gold.Version>
5.8.1

> <Gold.Id.Protein>
ID|2FQT|mol2

> <Gold.PLP.Fitness>
48.0129

> <Gold.PLP.PLP>
-43.2800

> <Gold.PLP.part.hbond>
-2.0000

> <Gold.PLP.part.metal>
0.0000

> <Gold.PLP.part.buried>
-6.2550

> <Gold.PLP.part.nonpolar>
-36.0261

> <Gold.PLP.part.repulsive>
0.3632

> <Gold.PLP.ligand.clash>
0.0000

> <Gold.PLP.ligand.torsion>
0.9649

> <Gold.PLP.Chemscore.Hbond>
1.8160

> <Gold.PLP.Chemscore.CHOScore>
0.0000

> <Gold.PLP.Chemscore.Metal>
0.0000

> <Gold.Chemscore.Hbonds>
donor molecule, donor type, donor heavy atom, donor atom, acceptor molecule, acceptor atom, score
      P1  H   584  3043       L1    20  1.00
      P1  H   494  2961       L1     3  0.82

> <Gold.PLP.Chemscore.Internal.Correction>
1.2146

> <Gold.Protein.RotatedTorsions>
[ 3412  950  949  948 ] final   -9.94 input   60.00 | X-H torsion
[ 3476 1244 1243 1240 ] final  169.85 input   60.00 | X-H torsion
[ 2649 1223 1224 1225 ] final -176.75 input   60.00 | X-H torsion
[ 4380 1912 1911 1909 ] final  110.80 input   60.00 | X-H torsion
[ 3084  621  620  617 ] final  -53.99 input   60.00 | X-H torsion

> <Gold.Protein.ActiveResidues>
 HIS54   GLU57   HIS58   ALA61   PHE62   ILE64   ARG65   ASP75   ILE76   ILE77  
 ASP78   ILE79   SER80   PRO81   ILE118  PRO119  ALA120  ALA121  ASN122  LYS124 
 GLN125  CYS126  GLY127  CO701   VAL4    GLU5    SER6    PHE7    GLU8    LEU9   
 HIS11   ARG20   HIS21   CYS22   GLY23   VAL24   HIS25   LYS35   ARG39   MET82  
 GLY83   CYS84   TYR89  

> <Gold.Protein.RotatedAtoms>
  -21.3233   38.4556  -16.0661 H   0  0  0  0  0  0  0  0  0  0  0  0  # atno 2649 bound_to 1223
  -21.1124   37.1848  -17.1091 H   0  0  0  0  0  0  0  0  0  0  0  0  # atno 2650 bound_to 1223
  -19.7620   28.2164  -13.6777 H   0  0  0  0  0  0  0  0  0  0  0  0  # atno 3084 bound_to 621 
  -28.8502   38.3172  -28.0083 H   0  0  0  0  0  0  0  0  0  0  0  0  # atno 3412 bound_to 950 
  -27.6696   37.7614  -29.0304 H   0  0  0  0  0  0  0  0  0  0  0  0  # atno 3413 bound_to 950 
  -28.3107   39.2742  -29.2494 H   0  0  0  0  0  0  0  0  0  0  0  0  # atno 3414 bound_to 950 
  -23.4930   31.5568  -19.7573 H   0  0  0  0  0  0  0  0  0  0  0  0  # atno 3476 bound_to 1244
  -20.0054   31.9472  -19.1957 H   0  0  0  0  0  0  0  0  0  0  0  0  # atno 4380 bound_to 1912
  -23.0962   31.8999  -21.2977 LP  0  0  0  0  0  0  0  0  0  0  0  0  # atno 4866 bound_to 1244
  -24.4052   32.5970  -20.6140 LP  0  0  0  0  0  0  0  0  0  0  0  0  # atno 4867 bound_to 1244
  -20.1943   38.5417  -17.2597 LP  0  0  0  0  0  0  0  0  0  0  0  0  # atno 4874 bound_to 1223
  -21.2487   30.9011  -19.2833 LP  0  0  0  0  0  0  0  0  0  0  0  0  # atno 4875 bound_to 1912
  -20.1844   31.0138  -20.5166 LP  0  0  0  0  0  0  0  0  0  0  0  0  # atno 4876 bound_to 1912
  -18.4059   27.3321  -13.8421 LP  0  0  0  0  0  0  0  0  0  0  0  0  # atno 4881 bound_to 621 
  -18.4076   28.6608  -12.8928 LP  0  0  0  0  0  0  0  0  0  0  0  0  # atno 4882 bound_to 621 

$$$$
Compound 100|Decoys_protonated|sdf|100|dock1
  -GOLD-   6122416183D 1   1.00000     0.00000

 23 25  0  0  0  0  0  0  0  0  1 V2000
  -26.1534   31.0586  -17.5847 N   0  0  0  0  0  0  0  0  0  0  0  0
  -25.6086   30.2004  -18.4033 C   0  0  0  0  0  0  0  0  0  0  0  0
  -25.1141   31.3986  -16.7296 C   0  0  0  0  0  0  0  0  0  0  0  0
  -25.9595   29.4858  -19.4889 N   0  0  0  0  0  0  0  0  0  0  0  0
  -24.2937   29.9924  -18.1256 N   0  0  0  0  0  0  0  0  0  0  0  0
  -23.9234   30.7353  -17.0628 C   0  0  0  0  0  0  0  0  0  0  0  0
  -25.1133   32.2825  -15.6401 C   0  0  0  0  0  0  0  0  0  0  0  0
  -27.1277   29.8586  -20.1432 N   0  0  0  0  0  0  0  0  0  0  0  0
  -24.7710   28.9028  -20.1165 C   0  0  0  0  0  0  0  0  0  0  0  0
  -23.6567   29.0900  -19.0608 C   0  0  0  0  0  0  0  0  0  0  0  0
  -22.7257   30.9090  -16.3676 C   0  0  0  0  0  0  0  0  0  0  0  0
  -23.9232   32.4714  -14.9251 C   0  0  0  0  0  0  0  0  0  0  0  0
  -22.7535   31.7962  -15.2852 C   0  0  0  0  0  0  0  0  0  0  0  0
  -26.0225   32.8054  -15.3657 H   0  0  0  0  0  0  0  0  0  0  0  0
  -26.9306   30.6424  -20.7733 H   0  0  0  0  0  0  0  0  0  0  0  0
  -27.7681   30.2677  -19.4533 H   0  0  0  0  0  0  0  0  0  0  0  0
  -24.5168   29.4435  -21.0361 H   0  0  0  0  0  0  0  0  0  0  0  0
  -24.9197   27.8460  -20.3606 H   0  0  0  0  0  0  0  0  0  0  0  0
  -23.4238   28.1620  -18.5315 H   0  0  0  0  0  0  0  0  0  0  0  0
  -22.7567   29.5560  -19.4684 H   0  0  0  0  0  0  0  0  0  0  0  0
  -21.8176   30.3854  -16.6440 H   0  0  0  0  0  0  0  0  0  0  0  0
  -23.9129   33.1542  -14.0787 H   0  0  0  0  0  0  0  0  0  0  0  0
  -21.8443   31.9635  -14.7108 H   0  0  0  0  0  0  0  0  0  0  0  0
  1  2  2  0  0  0  0
  1  3  1  0  0  0  0
  2  4  1  0  0  0  0
  2  5  1  0  0  0  0
  3  6  2  0  0  0  0
  3  7  1  0  0  0  0
  4  8  1  0  0  0  0
  4  9  1  0  0  0  0
  5 10  1  0  0  0  0
  5  6  1  0  0  0  0
  6 11  1  0  0  0  0
  7 12  2  0  0  0  0
  7 14  1  0  0  0  0
  8 15  1  0  0  0  0
  8 16  1  0  0  0  0
  9 10  1  0  0  0  0
  9 17  1  0  0  0  0
  9 18  1  0  0  0  0
 10 19  1  0  0  0  0
 10 20  1  0  0  0  0
 11 13  2  0  0  0  0
 11 21  1  0  0  0  0
 12 13  1  0  0  0  0
 12 22  1  0  0  0  0
 13 23  1  0  0  0  0
M  END
>  <Column 1>
NN1CCn2c1nc1ccccc12 ZINC000000017481

>  <Total Molweight>
174.206

>  <cLogP>
1.0881

>  <cLogS>
-1.236

>  <H-Acceptors>
4

>  <H-Donors>
1

>  <Total Surface Area>
128.66

>  <MMFF94 Energy>
48.555

> <Gold.Version>
5.8.1

> <Gold.Id.Protein>
ID|2FQT|mol2

> <Gold.PLP.Fitness>
52.8251

> <Gold.PLP.PLP>
-41.4380

> <Gold.PLP.part.hbond>
-0.8855

> <Gold.PLP.part.metal>
-1.0000

> <Gold.PLP.part.buried>
0.2022

> <Gold.PLP.part.nonpolar>
-39.4528

> <Gold.PLP.part.repulsive>
0.0789

> <Gold.PLP.ligand.clash>
0.0000

> <Gold.PLP.ligand.torsion>
0.0000

> <Gold.PLP.Chemscore.Hbond>
0.9025

> <Gold.PLP.Chemscore.CHOScore>
0.0000

> <Gold.PLP.Chemscore.Metal>
1.4466

> <Gold.Chemscore.Hbonds>
donor molecule, donor type, donor heavy atom, donor atom, acceptor molecule, acceptor atom, score
      P1  H   966  3428       L1     8  0.90
      P1  M  1222  1222       L1     1  0.46
      P1  M  1222  1222       L1     8  0.99

> <Gold.PLP.Chemscore.Internal.Correction>
0.0000

> <Gold.Protein.RotatedTorsions>
[ 3412  950  949  948 ] final  100.09 input   60.00 | X-H torsion
[ 3476 1244 1243 1240 ] final -179.54 input   60.00 | X-H torsion
[ 2649 1223 1224 1225 ] final  176.23 input   60.00 | X-H torsion
[ 4380 1912 1911 1909 ] final -161.87 input   60.00 | X-H torsion
[ 3084  621  620  617 ] final  121.13 input   60.00 | X-H torsion

> <Gold.Protein.ActiveResidues>
 HIS54   GLU57   HIS58   ALA61   PHE62   ILE64   ARG65   ASP75   ILE76   ILE77  
 ASP78   ILE79   SER80   PRO81   ILE118  PRO119  ALA120  ALA121  ASN122  LYS124 
 GLN125  CYS126  GLY127  CO701   VAL4    GLU5    SER6    PHE7    GLU8    LEU9   
 HIS11   ARG20   HIS21   CYS22   GLY23   VAL24   HIS25   LYS35   ARG39   MET82  
 GLY83   CYS84   TYR89  

> <Gold.Protein.RotatedAtoms>
  -21.2542   38.5487  -16.0825 H   0  0  0  0  0  0  0  0  0  0  0  0  # atno 2649 bound_to 1223
  -21.1912   37.1850  -17.0224 H   0  0  0  0  0  0  0  0  0  0  0  0  # atno 2650 bound_to 1223
  -17.9634   27.9875  -13.2170 H   0  0  0  0  0  0  0  0  0  0  0  0  # atno 3084 bound_to 621 
  -27.7327   37.6762  -28.9022 H   0  0  0  0  0  0  0  0  0  0  0  0  # atno 3412 bound_to 950 
  -28.1921   39.2062  -29.3442 H   0  0  0  0  0  0  0  0  0  0  0  0  # atno 3413 bound_to 950 
  -28.9056   38.4704  -28.0416 H   0  0  0  0  0  0  0  0  0  0  0  0  # atno 3414 bound_to 950 
  -23.6340   31.6382  -19.6988 H   0  0  0  0  0  0  0  0  0  0  0  0  # atno 3476 bound_to 1244
  -19.8460   31.3831  -20.3479 H   0  0  0  0  0  0  0  0  0  0  0  0  # atno 4380 bound_to 1912
  -23.0090   31.7909  -21.1935 LP  0  0  0  0  0  0  0  0  0  0  0  0  # atno 4866 bound_to 1244
  -24.3504   32.6240  -20.7772 LP  0  0  0  0  0  0  0  0  0  0  0  0  # atno 4867 bound_to 1244
  -20.1847   38.4498  -17.3288 LP  0  0  0  0  0  0  0  0  0  0  0  0  # atno 4874 bound_to 1223
  -20.4103   31.8134  -18.8836 LP  0  0  0  0  0  0  0  0  0  0  0  0  # atno 4875 bound_to 1912
  -21.1833   30.6697  -19.7559 LP  0  0  0  0  0  0  0  0  0  0  0  0  # atno 4876 bound_to 1912
  -19.3801   28.7846  -13.1419 LP  0  0  0  0  0  0  0  0  0  0  0  0  # atno 4881 bound_to 621 
  -19.2447   27.4389  -14.0569 LP  0  0  0  0  0  0  0  0  0  0  0  0  # atno 4882 bound_to 621 

$$$$
Compound 101|Decoys_protonated|sdf|101|dock2
  -GOLD-   6122416183D 1   1.00000     0.00000

 37 39  0  0  0  0  0  0  0  0  1 V2000
  -15.9715   40.7331  -14.4390 O   0  0  0  0  0  0  0  0  0  0  0  0
  -16.4423   40.0474  -13.5276 C   0  0  0  0  0  0  0  0  0  0  0  0
  -16.9407   38.7716  -13.8078 N   0  0  0  0  0  0  0  0  0  0  0  0
  -16.4770   40.5611  -12.1648 C   0  0  0  0  0  0  0  0  0  0  0  0
  -17.0531   38.3573  -15.2088 C   0  0  0  0  0  0  0  0  0  0  0  0
  -17.3082   37.7657  -12.8027 C   0  0  0  0  0  0  0  0  0  0  0  0
  -17.4118   40.1376  -11.2565 O   0  0  0  0  0  0  0  0  0  0  0  0
  -15.6958   41.5416  -11.5743 C   0  0  0  0  0  0  0  0  0  0  0  0
  -18.1979   37.3600  -15.4536 C   0  0  0  0  0  0  0  0  0  0  0  0
  -17.3105   36.3199  -13.3369 C   0  0  0  0  0  0  0  0  0  0  0  0
  -17.2052   40.8239  -10.1042 C   0  0  0  0  0  0  0  0  0  0  0  0
  -16.1581   41.7008  -10.2470 C   0  0  0  0  0  0  0  0  0  0  0  0
  -18.0968   36.2114  -14.5596 N   0  0  0  0  0  0  0  0  0  0  0  0
  -18.7054   35.0275  -14.8921 C   0  0  0  0  0  0  0  0  0  0  0  0
  -18.8081   34.6978  -16.1880 N   0  0  0  0  0  0  0  0  0  0  0  0
  -19.1752   34.2430  -13.9068 N   0  0  0  0  0  0  0  0  0  0  0  0
  -19.4093   33.5327  -16.4840 C   0  0  0  0  0  0  0  0  0  0  0  0
  -19.7682   33.0855  -14.2521 C   0  0  0  0  0  0  0  0  0  0  0  0
  -19.5441   33.1407  -17.8031 O   0  0  0  0  0  0  0  0  0  0  0  0
  -19.9156   32.6722  -15.5469 C   0  0  0  0  0  0  0  0  0  0  0  0
  -18.7335   33.8978  -18.6964 C   0  0  0  0  0  0  0  0  0  0  0  0
  -17.1878   39.2323  -15.8540 H   0  0  0  0  0  0  0  0  0  0  0  0
  -16.0933   37.8981  -15.4767 H   0  0  0  0  0  0  0  0  0  0  0  0
  -18.3149   38.0235  -12.4529 H   0  0  0  0  0  0  0  0  0  0  0  0
  -16.6173   37.8251  -11.9559 H   0  0  0  0  0  0  0  0  0  0  0  0
  -14.8901   42.0731  -12.0635 H   0  0  0  0  0  0  0  0  0  0  0  0
  -19.1609   37.8580  -15.2879 H   0  0  0  0  0  0  0  0  0  0  0  0
  -18.1506   37.0557  -16.5063 H   0  0  0  0  0  0  0  0  0  0  0  0
  -17.7002   35.6780  -12.5377 H   0  0  0  0  0  0  0  0  0  0  0  0
  -16.2817   36.0032  -13.5471 H   0  0  0  0  0  0  0  0  0  0  0  0
  -17.8758   40.5845   -9.2905 H   0  0  0  0  0  0  0  0  0  0  0  0
  -15.7819   42.3775   -9.4927 H   0  0  0  0  0  0  0  0  0  0  0  0
  -20.1309   32.4850  -13.4238 H   0  0  0  0  0  0  0  0  0  0  0  0
  -20.3933   31.7416  -15.8128 H   0  0  0  0  0  0  0  0  0  0  0  0
  -18.9095   33.5191  -19.7078 H   0  0  0  0  0  0  0  0  0  0  0  0
  -19.0122   34.9573  -18.6845 H   0  0  0  0  0  0  0  0  0  0  0  0
  -17.6687   33.7681  -18.4730 H   0  0  0  0  0  0  0  0  0  0  0  0
  1  2  2  0  0  0  0
  2  3  1  0  0  0  0
  2  4  1  0  0  0  0
  3  5  1  0  0  0  0
  3  6  1  0  0  0  0
  4  7  1  0  0  0  0
  4  8  2  0  0  0  0
  5  9  1  0  0  0  0
  5 22  1  0  0  0  0
  5 23  1  0  0  0  0
  6 10  1  0  0  0  0
  6 24  1  0  0  0  0
  6 25  1  0  0  0  0
  7 11  1  0  0  0  0
  8 12  1  0  0  0  0
  8 26  1  0  0  0  0
  9 13  1  0  0  0  0
  9 27  1  0  0  0  0
  9 28  1  0  0  0  0
 10 13  1  0  0  0  0
 10 29  1  0  0  0  0
 10 30  1  0  0  0  0
 11 12  2  0  0  0  0
 11 31  1  0  0  0  0
 12 32  1  0  0  0  0
 13 14  1  0  0  0  0
 14 15  2  0  0  0  0
 14 16  1  0  0  0  0
 15 17  1  0  0  0  0
 16 18  2  0  0  0  0
 17 19  1  0  0  0  0
 17 20  2  0  0  0  0
 18 20  1  0  0  0  0
 18 33  1  0  0  0  0
 19 21  1  0  0  0  0
 20 34  1  0  0  0  0
 21 35  1  0  0  0  0
 21 36  1  0  0  0  0
 21 37  1  0  0  0  0
M  END
>  <Column 1>
COc1ccnc(N2CCN(C(=O)c3ccco3)CC2)n1 ZINC000000017599

>  <Total Molweight>
288.306

>  <cLogP>
1.2149

>  <cLogS>
-2.165

>  <H-Acceptors>
7

>  <H-Donors>
0

>  <Total Surface Area>
222.38

>  <MMFF94 Energy>
-33.148

> <Gold.Version>
5.8.1

> <Gold.Id.Protein>
ID|2FQT|mol2

> <Gold.PLP.Fitness>
49.8745

> <Gold.PLP.PLP>
-45.4258

> <Gold.PLP.part.hbond>
-1.0000

> <Gold.PLP.part.metal>
0.0000

> <Gold.PLP.part.buried>
-6.8009

> <Gold.PLP.part.nonpolar>
-38.1474

> <Gold.PLP.part.repulsive>
0.2663

> <Gold.PLP.ligand.clash>
0.0000

> <Gold.PLP.ligand.torsion>
0.9238

> <Gold.PLP.Chemscore.Hbond>
1.0000

> <Gold.PLP.Chemscore.CHOScore>
0.9955

> <Gold.PLP.Chemscore.Metal>
0.0000

> <Gold.Chemscore.Hbonds>
donor molecule, donor type, donor heavy atom, donor atom, acceptor molecule, acceptor atom, score
      P1  H  1912  4380       L1    19  1.00
      L1  C    18    33       P1   611  1.00

> <Gold.PLP.Chemscore.Internal.Correction>
0.3099

> <Gold.Protein.RotatedTorsions>
[ 3412  950  949  948 ] final  165.16 input   60.00 | X-H torsion
[ 3476 1244 1243 1240 ] final  101.06 input   60.00 | X-H torsion
[ 2649 1223 1224 1225 ] final    5.55 input   60.00 | X-H torsion
[ 4380 1912 1911 1909 ] final   85.55 input   60.00 | X-H torsion
[ 3084  621  620  617 ] final  155.57 input   60.00 | X-H torsion

> <Gold.Protein.ActiveResidues>
 HIS54   GLU57   HIS58   ALA61   PHE62   ILE64   ARG65   ASP75   ILE76   ILE77  
 ASP78   ILE79   SER80   PRO81   ILE118  PRO119  ALA120  ALA121  ASN122  LYS124 
 GLN125  CYS126  GLY127  CO701   VAL4    GLU5    SER6    PHE7    GLU8    LEU9   
 HIS11   ARG20   HIS21   CYS22   GLY23   VAL24   HIS25   LYS35   ARG39   MET82  
 GLY83   CYS84   TYR89  

> <Gold.Protein.RotatedAtoms>
  -20.3997   37.7013  -17.5625 H   0  0  0  0  0  0  0  0  0  0  0  0  # atno 2649 bound_to 1223
  -20.6586   38.9372  -16.4890 H   0  0  0  0  0  0  0  0  0  0  0  0  # atno 2650 bound_to 1223
  -18.0768   27.5655  -13.5581 H   0  0  0  0  0  0  0  0  0  0  0  0  # atno 3084 bound_to 621 
  -27.6739   38.5095  -29.5034 H   0  0  0  0  0  0  0  0  0  0  0  0  # atno 3412 bound_to 950 
  -28.8552   39.1852  -28.5573 H   0  0  0  0  0  0  0  0  0  0  0  0  # atno 3413 bound_to 950 
  -28.3014   37.6582  -28.2273 H   0  0  0  0  0  0  0  0  0  0  0  0  # atno 3414 bound_to 950 
  -22.9022   31.4786  -20.6313 H   0  0  0  0  0  0  0  0  0  0  0  0  # atno 3476 bound_to 1244
  -20.3108   31.8567  -18.9388 H   0  0  0  0  0  0  0  0  0  0  0  0  # atno 4380 bound_to 1912
  -23.9501   32.5368  -21.2872 LP  0  0  0  0  0  0  0  0  0  0  0  0  # atno 4866 bound_to 1244
  -24.1462   32.0388  -19.7444 LP  0  0  0  0  0  0  0  0  0  0  0  0  # atno 4867 bound_to 1244
  -21.5513   37.5584  -16.3963 LP  0  0  0  0  0  0  0  0  0  0  0  0  # atno 4874 bound_to 1223
  -21.2197   30.7067  -19.6456 LP  0  0  0  0  0  0  0  0  0  0  0  0  # atno 4875 bound_to 1912
  -19.9058   31.2994  -20.4130 LP  0  0  0  0  0  0  0  0  0  0  0  0  # atno 4876 bound_to 1912
  -18.8684   28.8388  -12.9255 LP  0  0  0  0  0  0  0  0  0  0  0  0  # atno 4881 bound_to 621 
  -19.6422   27.8097  -13.9298 LP  0  0  0  0  0  0  0  0  0  0  0  0  # atno 4882 bound_to 621 

$$$$
Compound 102|Decoys_protonated|sdf|102|dock8
  -GOLD-   6122416183D 1   1.00000     0.00000

 39 41  0  0  0  0  0  0  0  0  1 V2000
  -19.2776   33.1102  -13.6073 O   0  0  0  0  0  0  0  0  0  0  0  0
  -19.6083   33.4025  -14.7600 C   0  0  0  0  0  0  0  0  0  0  0  0
  -20.6494   32.7311  -15.4059 N   0  0  0  0  0  0  0  0  0  0  0  0
  -18.8547   34.5101  -15.4446 C   0  0  0  0  0  0  0  0  0  0  0  0
  -21.2603   33.1377  -16.6785 C   0  0  0  0  0  0  0  0  0  0  0  0
  -21.2301   31.5542  -14.7552 C   0  0  0  0  0  0  0  0  0  0  0  0
  -18.8707   34.5685  -16.8025 N   0  0  0  0  0  0  0  0  0  0  0  0
  -18.1248   35.4005  -14.6602 C   0  0  0  0  0  0  0  0  0  0  0  0
  -22.6924   32.6035  -16.8788 C   0  0  0  0  0  0  0  0  0  0  0  0
  -21.8060   30.5327  -15.7508 C   0  0  0  0  0  0  0  0  0  0  0  0
  -18.1475   35.5511  -17.3825 C   0  0  0  0  0  0  0  0  0  0  0  0
  -17.3940   36.4043  -15.2900 C   0  0  0  0  0  0  0  0  0  0  0  0
  -22.7568   31.1632  -16.6619 N   0  0  0  0  0  0  0  0  0  0  0  0
  -17.4043   36.4835  -16.6772 C   0  0  0  0  0  0  0  0  0  0  0  0
  -23.7126   30.4056  -17.2894 C   0  0  0  0  0  0  0  0  0  0  0  0
  -24.6939   31.0284  -17.9589 N   0  0  0  0  0  0  0  0  0  0  0  0
  -23.6301   29.0662  -17.2086 N   0  0  0  0  0  0  0  0  0  0  0  0
  -25.6155   30.2586  -18.5628 C   0  0  0  0  0  0  0  0  0  0  0  0
  -24.5750   28.3376  -17.8303 C   0  0  0  0  0  0  0  0  0  0  0  0
  -26.6506   30.8450  -19.2678 O   0  0  0  0  0  0  0  0  0  0  0  0
  -25.6087   28.8895  -18.5342 C   0  0  0  0  0  0  0  0  0  0  0  0
  -26.5012   32.2541  -19.4095 C   0  0  0  0  0  0  0  0  0  0  0  0
  -21.2818   34.2298  -16.7435 H   0  0  0  0  0  0  0  0  0  0  0  0
  -20.6163   32.7491  -17.4764 H   0  0  0  0  0  0  0  0  0  0  0  0
  -22.0263   31.9234  -14.0969 H   0  0  0  0  0  0  0  0  0  0  0  0
  -20.4815   31.0671  -14.1206 H   0  0  0  0  0  0  0  0  0  0  0  0
  -18.1209   35.3111  -13.5780 H   0  0  0  0  0  0  0  0  0  0  0  0
  -23.3714   33.0988  -16.1740 H   0  0  0  0  0  0  0  0  0  0  0  0
  -23.0051   32.8798  -17.8930 H   0  0  0  0  0  0  0  0  0  0  0  0
  -22.2775   29.7336  -15.1660 H   0  0  0  0  0  0  0  0  0  0  0  0
  -20.9912   30.0889  -16.3359 H   0  0  0  0  0  0  0  0  0  0  0  0
  -18.1791   35.5700  -18.4687 H   0  0  0  0  0  0  0  0  0  0  0  0
  -16.8164   37.1120  -14.7016 H   0  0  0  0  0  0  0  0  0  0  0  0
  -16.8409   37.2505  -17.1978 H   0  0  0  0  0  0  0  0  0  0  0  0
  -24.4658   27.2616  -17.7382 H   0  0  0  0  0  0  0  0  0  0  0  0
  -26.3618   28.2956  -19.0291 H   0  0  0  0  0  0  0  0  0  0  0  0
  -27.3622   32.6250  -19.9739 H   0  0  0  0  0  0  0  0  0  0  0  0
  -26.5023   32.7537  -18.4345 H   0  0  0  0  0  0  0  0  0  0  0  0
  -25.5984   32.5026  -19.9784 H   0  0  0  0  0  0  0  0  0  0  0  0
  1  2  2  0  0  0  0
  2  3  1  0  0  0  0
  2  4  1  0  0  0  0
  3  5  1  0  0  0  0
  3  6  1  0  0  0  0
  4  7  2  0  0  0  0
  4  8  1  0  0  0  0
  5  9  1  0  0  0  0
  5 23  1  0  0  0  0
  5 24  1  0  0  0  0
  6 10  1  0  0  0  0
  6 25  1  0  0  0  0
  6 26  1  0  0  0  0
  7 11  1  0  0  0  0
  8 12  2  0  0  0  0
  8 27  1  0  0  0  0
  9 13  1  0  0  0  0
  9 28  1  0  0  0  0
  9 29  1  0  0  0  0
 10 13  1  0  0  0  0
 10 30  1  0  0  0  0
 10 31  1  0  0  0  0
 11 14  2  0  0  0  0
 11 32  1  0  0  0  0
 12 14  1  0  0  0  0
 12 33  1  0  0  0  0
 13 15  1  0  0  0  0
 14 34  1  0  0  0  0
 15 16  2  0  0  0  0
 15 17  1  0  0  0  0
 16 18  1  0  0  0  0
 17 19  2  0  0  0  0
 18 20  1  0  0  0  0
 18 21  2  0  0  0  0
 19 21  1  0  0  0  0
 19 35  1  0  0  0  0
 20 22  1  0  0  0  0
 21 36  1  0  0  0  0
 22 37  1  0  0  0  0
 22 38  1  0  0  0  0
 22 39  1  0  0  0  0
M  END
>  <Column 1>
COc1ccnc(N2CCN(C(=O)c3ccccn3)CC2)n1 ZINC000000017602

>  <Total Molweight>
299.333

>  <cLogP>
1.0793

>  <cLogS>
-1.712

>  <H-Acceptors>
7

>  <H-Donors>
0

>  <Total Surface Area>
231.45

>  <MMFF94 Energy>
9.9451

> <Gold.Version>
5.8.1

> <Gold.Id.Protein>
ID|2FQT|mol2

> <Gold.PLP.Fitness>
57.9779

> <Gold.PLP.PLP>
-46.6183

> <Gold.PLP.part.hbond>
-2.0000

> <Gold.PLP.part.metal>
-1.0000

> <Gold.PLP.part.buried>
-5.0645

> <Gold.PLP.part.nonpolar>
-40.9295

> <Gold.PLP.part.repulsive>
1.3703

> <Gold.PLP.ligand.clash>
0.0000

> <Gold.PLP.ligand.torsion>
0.3176

> <Gold.PLP.Chemscore.Hbond>
1.9000

> <Gold.PLP.Chemscore.CHOScore>
0.0000

> <Gold.PLP.Chemscore.Metal>
0.9951

> <Gold.Chemscore.Hbonds>
donor molecule, donor type, donor heavy atom, donor atom, acceptor molecule, acceptor atom, score
      P1  H  1244  3476       L1    16  0.90
      P1  H   608  3069       L1     1  1.00
      P1  M  1222  1222       L1    20  1.00

> <Gold.PLP.Chemscore.Internal.Correction>
0.3243

> <Gold.Protein.RotatedTorsions>
[ 3412  950  949  948 ] final -123.94 input   60.00 | X-H torsion
[ 3476 1244 1243 1240 ] final -171.14 input   60.00 | X-H torsion
[ 2649 1223 1224 1225 ] final  111.50 input   60.00 | X-H torsion
[ 4380 1912 1911 1909 ] final  -45.80 input   60.00 | X-H torsion
[ 3084  621  620  617 ] final  -34.27 input   60.00 | X-H torsion

> <Gold.Protein.ActiveResidues>
 HIS54   GLU57   HIS58   ALA61   PHE62   ILE64   ARG65   ASP75   ILE76   ILE77  
 ASP78   ILE79   SER80   PRO81   ILE118  PRO119  ALA120  ALA121  ASN122  LYS124 
 GLN125  CYS126  GLY127  CO701   VAL4    GLU5    SER6    PHE7    GLU8    LEU9   
 HIS11   ARG20   HIS21   CYS22   GLY23   VAL24   HIS25   LYS35   ARG39   MET82  
 GLY83   CYS84   TYR89  

> <Gold.Protein.RotatedAtoms>
  -20.5026   38.9324  -16.6634 H   0  0  0  0  0  0  0  0  0  0  0  0  # atno 2649 bound_to 1223
  -21.5739   37.7375  -16.2492 H   0  0  0  0  0  0  0  0  0  0  0  0  # atno 2650 bound_to 1223
  -19.7095   28.4649  -13.4818 H   0  0  0  0  0  0  0  0  0  0  0  0  # atno 3084 bound_to 621 
  -28.3817   39.3032  -29.1850 H   0  0  0  0  0  0  0  0  0  0  0  0  # atno 3412 bound_to 950 
  -28.8085   38.2266  -27.9992 H   0  0  0  0  0  0  0  0  0  0  0  0  # atno 3413 bound_to 950 
  -27.6404   37.8230  -29.1038 H   0  0  0  0  0  0  0  0  0  0  0  0  # atno 3414 bound_to 950 
  -23.7467   31.7121  -19.6731 H   0  0  0  0  0  0  0  0  0  0  0  0  # atno 3476 bound_to 1244
  -21.1531   30.6569  -19.8119 H   0  0  0  0  0  0  0  0  0  0  0  0  # atno 4380 bound_to 1912
  -22.9557   31.7097  -21.0952 LP  0  0  0  0  0  0  0  0  0  0  0  0  # atno 4866 bound_to 1244
  -24.2902   32.6308  -20.9014 LP  0  0  0  0  0  0  0  0  0  0  0  0  # atno 4867 bound_to 1244
  -20.5482   37.5274  -17.5183 LP  0  0  0  0  0  0  0  0  0  0  0  0  # atno 4874 bound_to 1223
  -19.8137   31.4305  -20.3176 LP  0  0  0  0  0  0  0  0  0  0  0  0  # atno 4875 bound_to 1912
  -20.4636   31.7838  -18.8618 LP  0  0  0  0  0  0  0  0  0  0  0  0  # atno 4876 bound_to 1912
  -18.6976   27.2893  -13.9740 LP  0  0  0  0  0  0  0  0  0  0  0  0  # atno 4881 bound_to 621 
  -18.1688   28.4534  -12.9582 LP  0  0  0  0  0  0  0  0  0  0  0  0  # atno 4882 bound_to 621 

$$$$
Compound 103|Decoys_protonated|sdf|103|dock2
  -GOLD-   6122416183D 1   1.00000     0.00000

 36 38  0  0  0  0  0  0  0  0  1 V2000
  -17.7800   35.5505  -14.5581 S   0  0  0  0  0  0  0  0  0  0  0  0
  -18.9467   34.6086  -15.4125 C   0  0  0  0  0  0  0  0  0  0  0  0
  -17.4669   36.4488  -15.9816 C   0  0  0  0  0  0  0  0  0  0  0  0
  -19.0948   34.9324  -16.6859 N   0  0  0  0  0  0  0  0  0  0  0  0
  -19.6555   33.5232  -14.7136 C   0  0  0  0  0  0  0  0  0  0  0  0
  -18.2539   35.9792  -17.0086 C   0  0  0  0  0  0  0  0  0  0  0  0
  -19.3089   33.1353  -13.5921 O   0  0  0  0  0  0  0  0  0  0  0  0
  -20.7514   32.9014  -15.3348 N   0  0  0  0  0  0  0  0  0  0  0  0
  -21.3388   31.7141  -14.7076 C   0  0  0  0  0  0  0  0  0  0  0  0
  -21.3902   33.3643  -16.5744 C   0  0  0  0  0  0  0  0  0  0  0  0
  -21.9017   30.7112  -15.7292 C   0  0  0  0  0  0  0  0  0  0  0  0
  -22.8101   32.8067  -16.7952 C   0  0  0  0  0  0  0  0  0  0  0  0
  -22.8395   31.3577  -16.6414 N   0  0  0  0  0  0  0  0  0  0  0  0
  -23.7647   30.6026  -17.3176 C   0  0  0  0  0  0  0  0  0  0  0  0
  -24.8092   31.2194  -17.8894 N   0  0  0  0  0  0  0  0  0  0  0  0
  -23.5880   29.2713  -17.3799 N   0  0  0  0  0  0  0  0  0  0  0  0
  -25.6972   30.4520  -18.5447 C   0  0  0  0  0  0  0  0  0  0  0  0
  -24.5029   28.5448  -18.0477 C   0  0  0  0  0  0  0  0  0  0  0  0
  -26.7943   31.0323  -19.1544 O   0  0  0  0  0  0  0  0  0  0  0  0
  -25.5963   29.0910  -18.6600 C   0  0  0  0  0  0  0  0  0  0  0  0
  -26.5495   32.3648  -19.5933 C   0  0  0  0  0  0  0  0  0  0  0  0
  -16.7415   37.2495  -15.9988 H   0  0  0  0  0  0  0  0  0  0  0  0
  -18.2529   36.3662  -18.0207 H   0  0  0  0  0  0  0  0  0  0  0  0
  -20.6013   31.2103  -14.0734 H   0  0  0  0  0  0  0  0  0  0  0  0
  -22.1430   32.0728  -14.0531 H   0  0  0  0  0  0  0  0  0  0  0  0
  -20.7434   33.0463  -17.4008 H   0  0  0  0  0  0  0  0  0  0  0  0
  -21.4443   34.4573  -16.5701 H   0  0  0  0  0  0  0  0  0  0  0  0
  -21.0784   30.2781  -16.3104 H   0  0  0  0  0  0  0  0  0  0  0  0
  -22.3824   29.9020  -15.1658 H   0  0  0  0  0  0  0  0  0  0  0  0
  -23.1331   33.1228  -17.7945 H   0  0  0  0  0  0  0  0  0  0  0  0
  -23.4982   33.2538  -16.0671 H   0  0  0  0  0  0  0  0  0  0  0  0
  -24.3179   27.4754  -18.0724 H   0  0  0  0  0  0  0  0  0  0  0  0
  -26.3246   28.4989  -19.1931 H   0  0  0  0  0  0  0  0  0  0  0  0
  -27.4680   32.7364  -20.0579 H   0  0  0  0  0  0  0  0  0  0  0  0
  -26.3129   33.0236  -18.7503 H   0  0  0  0  0  0  0  0  0  0  0  0
  -25.7581   32.3945  -20.3505 H   0  0  0  0  0  0  0  0  0  0  0  0
  1  2  1  0  0  0  0
  1  3  1  0  0  0  0
  2  4  2  0  0  0  0
  2  5  1  0  0  0  0
  3  6  2  0  0  0  0
  3 22  1  0  0  0  0
  4  6  1  0  0  0  0
  5  7  2  0  0  0  0
  5  8  1  0  0  0  0
  6 23  1  0  0  0  0
  8  9  1  0  0  0  0
  8 10  1  0  0  0  0
  9 11  1  0  0  0  0
  9 24  1  0  0  0  0
  9 25  1  0  0  0  0
 10 12  1  0  0  0  0
 10 26  1  0  0  0  0
 10 27  1  0  0  0  0
 11 13  1  0  0  0  0
 11 28  1  0  0  0  0
 11 29  1  0  0  0  0
 12 13  1  0  0  0  0
 12 30  1  0  0  0  0
 12 31  1  0  0  0  0
 13 14  1  0  0  0  0
 14 15  2  0  0  0  0
 14 16  1  0  0  0  0
 15 17  1  0  0  0  0
 16 18  2  0  0  0  0
 17 19  1  0  0  0  0
 17 20  2  0  0  0  0
 18 20  1  0  0  0  0
 18 32  1  0  0  0  0
 19 21  1  0  0  0  0
 20 33  1  0  0  0  0
 21 34  1  0  0  0  0
 21 35  1  0  0  0  0
 21 36  1  0  0  0  0
M  END
>  <Column 1>
COc1ccnc(N2CCN(C(=O)c3nccs3)CC2)n1 ZINC000000017605

>  <Total Molweight>
305.361

>  <cLogP>
0.8563

>  <cLogS>
-1.513

>  <H-Acceptors>
7

>  <H-Donors>
0

>  <Total Surface Area>
227.39

>  <MMFF94 Energy>
-8.985

> <Gold.Version>
5.8.1

> <Gold.Id.Protein>
ID|2FQT|mol2

> <Gold.PLP.Fitness>
55.3679

> <Gold.PLP.PLP>
-45.7187

> <Gold.PLP.part.hbond>
-2.0000

> <Gold.PLP.part.metal>
-1.0000

> <Gold.PLP.part.buried>
-2.7908

> <Gold.PLP.part.nonpolar>
-41.3056

> <Gold.PLP.part.repulsive>
0.5242

> <Gold.PLP.ligand.clash>
0.0000

> <Gold.PLP.ligand.torsion>
0.5631

> <Gold.PLP.Chemscore.Hbond>
1.5452

> <Gold.PLP.Chemscore.CHOScore>
0.0000

> <Gold.PLP.Chemscore.Metal>
1.0000

> <Gold.Chemscore.Hbonds>
donor molecule, donor type, donor heavy atom, donor atom, acceptor molecule, acceptor atom, score
      P1  H  1244  3476       L1    15  0.55
      P1  H   608  3069       L1     7  1.00
      P1  M  1222  1222       L1    19  1.00

> <Gold.PLP.Chemscore.Internal.Correction>
0.1397

> <Gold.Protein.RotatedTorsions>
[ 3412  950  949  948 ] final  -34.62 input   60.00 | X-H torsion
[ 3476 1244 1243 1240 ] final -145.32 input   60.00 | X-H torsion
[ 2649 1223 1224 1225 ] final  -60.95 input   60.00 | X-H torsion
[ 4380 1912 1911 1909 ] final  112.67 input   60.00 | X-H torsion
[ 3084  621  620  617 ] final   50.43 input   60.00 | X-H torsion

> <Gold.Protein.ActiveResidues>
 HIS54   GLU57   HIS58   ALA61   PHE62   ILE64   ARG65   ASP75   ILE76   ILE77  
 ASP78   ILE79   SER80   PRO81   ILE118  PRO119  ALA120  ALA121  ASN122  LYS124 
 GLN125  CYS126  GLY127  CO701   VAL4    GLU5    SER6    PHE7    GLU8    LEU9   
 HIS11   ARG20   HIS21   CYS22   GLY23   VAL24   HIS25   LYS35   ARG39   MET82  
 GLY83   CYS84   TYR89  

> <Gold.Protein.RotatedAtoms>
  -21.1600   37.1833  -17.0577 H   0  0  0  0  0  0  0  0  0  0  0  0  # atno 2649 bound_to 1223
  -20.1736   38.4919  -17.3061 H   0  0  0  0  0  0  0  0  0  0  0  0  # atno 2650 bound_to 1223
  -18.6375   28.7704  -12.8913 H   0  0  0  0  0  0  0  0  0  0  0  0  # atno 3084 bound_to 621 
  -28.9524   38.6941  -28.1300 H   0  0  0  0  0  0  0  0  0  0  0  0  # atno 3412 bound_to 950 
  -27.8552   37.5937  -28.7067 H   0  0  0  0  0  0  0  0  0  0  0  0  # atno 3413 bound_to 950 
  -28.0230   39.0650  -29.4513 H   0  0  0  0  0  0  0  0  0  0  0  0  # atno 3414 bound_to 950 
  -24.0715   31.9725  -19.7126 H   0  0  0  0  0  0  0  0  0  0  0  0  # atno 3476 bound_to 1244
  -19.9858   31.9490  -19.2190 H   0  0  0  0  0  0  0  0  0  0  0  0  # atno 4380 bound_to 1912
  -22.8903   31.5084  -20.7311 LP  0  0  0  0  0  0  0  0  0  0  0  0  # atno 4866 bound_to 1244
  -24.0284   32.5698  -21.2257 LP  0  0  0  0  0  0  0  0  0  0  0  0  # atno 4867 bound_to 1244
  -21.2800   38.5074  -16.0885 LP  0  0  0  0  0  0  0  0  0  0  0  0  # atno 4874 bound_to 1223
  -21.2449   30.9189  -19.2586 LP  0  0  0  0  0  0  0  0  0  0  0  0  # atno 4875 bound_to 1912
  -20.2079   30.9942  -20.5178 LP  0  0  0  0  0  0  0  0  0  0  0  0  # atno 4876 bound_to 1912
  -19.7342   28.0073  -13.8205 LP  0  0  0  0  0  0  0  0  0  0  0  0  # atno 4881 bound_to 621 
  -18.2118   27.4278  -13.7063 LP  0  0  0  0  0  0  0  0  0  0  0  0  # atno 4882 bound_to 621 

$$$$
Compound 104|Decoys_protonated|sdf|104|dock10
  -GOLD-   6122416193D 1   1.00000     0.00000

 28 29  0  0  0  0  0  0  0  0  1 V2000
  -23.7951   36.9007  -15.7014 Cl  0  0  0  0  0  0  0  0  0  0  0  0
  -22.9738   35.4674  -16.1662 C   0  0  0  0  0  0  0  0  0  0  0  0
  -21.7317   35.6673  -16.6511 N   0  0  0  0  0  0  0  0  0  0  0  0
  -23.5776   34.2345  -16.0326 C   0  0  0  0  0  0  0  0  0  0  0  0
  -21.0164   34.5937  -17.0507 C   0  0  0  0  0  0  0  0  0  0  0  0
  -22.8437   33.1272  -16.4206 C   0  0  0  0  0  0  0  0  0  0  0  0
  -19.7301   34.7935  -17.5434 N   0  0  0  0  0  0  0  0  0  0  0  0
  -21.5555   33.3100  -16.9274 C   0  0  0  0  0  0  0  0  0  0  0  0
  -18.7949   35.6376  -16.7845 C   0  0  0  0  0  0  0  0  0  0  0  0
  -19.1096   33.6310  -18.2057 C   0  0  0  0  0  0  0  0  0  0  0  0
  -17.5468   35.9902  -17.6272 C   0  0  0  0  0  0  0  0  0  0  0  0
  -17.8516   34.0441  -19.0019 C   0  0  0  0  0  0  0  0  0  0  0  0
  -16.8748   34.8010  -18.1888 N   0  0  0  0  0  0  0  0  0  0  0  0
  -15.7238   35.1912  -18.9996 C   0  0  0  0  0  0  0  0  0  0  0  0
  -24.5790   34.1361  -15.6328 H   0  0  0  0  0  0  0  0  0  0  0  0
  -23.2573   32.1278  -16.3242 H   0  0  0  0  0  0  0  0  0  0  0  0
  -20.9756   32.4338  -17.1934 H   0  0  0  0  0  0  0  0  0  0  0  0
  -18.4859   35.1081  -15.8741 H   0  0  0  0  0  0  0  0  0  0  0  0
  -19.2511   36.5833  -16.4764 H   0  0  0  0  0  0  0  0  0  0  0  0
  -18.8353   32.8793  -17.4540 H   0  0  0  0  0  0  0  0  0  0  0  0
  -19.8058   33.1672  -18.9158 H   0  0  0  0  0  0  0  0  0  0  0  0
  -17.8482   36.6716  -18.4346 H   0  0  0  0  0  0  0  0  0  0  0  0
  -16.8459   36.5367  -16.9846 H   0  0  0  0  0  0  0  0  0  0  0  0
  -17.3783   33.1333  -19.3884 H   0  0  0  0  0  0  0  0  0  0  0  0
  -18.1641   34.6421  -19.8689 H   0  0  0  0  0  0  0  0  0  0  0  0
  -16.0053   35.8305  -19.8441 H   0  0  0  0  0  0  0  0  0  0  0  0
  -14.9907   35.7303  -18.3895 H   0  0  0  0  0  0  0  0  0  0  0  0
  -15.2145   34.3049  -19.3936 H   0  0  0  0  0  0  0  0  0  0  0  0
  1  2  1  0  0  0  0
  2  3  2  0  0  0  0
  2  4  1  0  0  0  0
  3  5  1  0  0  0  0
  4  6  2  0  0  0  0
  4 15  1  0  0  0  0
  5  7  1  0  0  0  0
  5  8  2  0  0  0  0
  6  8  1  0  0  0  0
  6 16  1  0  0  0  0
  7  9  1  0  0  0  0
  7 10  1  0  0  0  0
  8 17  1  0  0  0  0
  9 11  1  0  0  0  0
  9 18  1  0  0  0  0
  9 19  1  0  0  0  0
 10 12  1  0  0  0  0
 10 20  1  0  0  0  0
 10 21  1  0  0  0  0
 11 13  1  0  0  0  0
 11 22  1  0  0  0  0
 11 23  1  0  0  0  0
 12 13  1  0  0  0  0
 12 24  1  0  0  0  0
 12 25  1  0  0  0  0
 13 14  1  0  0  0  0
 14 26  1  0  0  0  0
 14 27  1  0  0  0  0
 14 28  1  0  0  0  0
M  END
>  <Column 1>
CN1CCN(c2cccc(Cl)n2)CC1 ZINC000000017836

>  <Total Molweight>
211.695

>  <cLogP>
1.4919

>  <cLogS>
-1.45

>  <H-Acceptors>
3

>  <H-Donors>
0

>  <Total Surface Area>
161.84

>  <MMFF94 Energy>
52.815

> <Gold.Version>
5.8.1

> <Gold.Id.Protein>
ID|2FQT|mol2

> <Gold.PLP.Fitness>
43.1860

> <Gold.PLP.PLP>
-37.1879

> <Gold.PLP.part.hbond>
-1.9849

> <Gold.PLP.part.metal>
0.0000

> <Gold.PLP.part.buried>
-4.4945

> <Gold.PLP.part.nonpolar>
-31.7816

> <Gold.PLP.part.repulsive>
0.0777

> <Gold.PLP.ligand.clash>
0.0000

> <Gold.PLP.ligand.torsion>
0.2431

> <Gold.PLP.Chemscore.Hbond>
2.0000

> <Gold.PLP.Chemscore.CHOScore>
0.0000

> <Gold.PLP.Chemscore.Metal>
0.0000

> <Gold.Chemscore.Hbonds>
donor molecule, donor type, donor heavy atom, donor atom, acceptor molecule, acceptor atom, score
      P1  H  1223  2649       L1     3  1.00
      P1  H  1466  3954       L1    13  1.00

> <Gold.PLP.Chemscore.Internal.Correction>
0.4843

> <Gold.Protein.RotatedTorsions>
[ 3412  950  949  948 ] final  139.13 input   60.00 | X-H torsion
[ 3476 1244 1243 1240 ] final  -37.75 input   60.00 | X-H torsion
[ 2649 1223 1224 1225 ] final  -77.15 input   60.00 | X-H torsion
[ 4380 1912 1911 1909 ] final    5.29 input   60.00 | X-H torsion
[ 3084  621  620  617 ] final  -26.87 input   60.00 | X-H torsion

> <Gold.Protein.ActiveResidues>
 HIS54   GLU57   HIS58   ALA61   PHE62   ILE64   ARG65   ASP75   ILE76   ILE77  
 ASP78   ILE79   SER80   PRO81   ILE118  PRO119  ALA120  ALA121  ASN122  LYS124 
 GLN125  CYS126  GLY127  CO701   VAL4    GLU5    SER6    PHE7    GLU8    LEU9   
 HIS11   ARG20   HIS21   CYS22   GLY23   VAL24   HIS25   LYS35   ARG39   MET82  
 GLY83   CYS84   TYR89  

> <Gold.Protein.RotatedAtoms>
  -21.3272   37.2215  -16.8496 H   0  0  0  0  0  0  0  0  0  0  0  0  # atno 2649 bound_to 1223
  -20.1816   38.2608  -17.4449 H   0  0  0  0  0  0  0  0  0  0  0  0  # atno 2650 bound_to 1223
  -19.6634   28.5475  -13.4068 H   0  0  0  0  0  0  0  0  0  0  0  0  # atno 3084 bound_to 621 
  -27.5947   38.1168  -29.3448 H   0  0  0  0  0  0  0  0  0  0  0  0  # atno 3412 bound_to 950 
  -28.6376   39.3264  -28.9014 H   0  0  0  0  0  0  0  0  0  0  0  0  # atno 3413 bound_to 950 
  -28.5982   37.9097  -28.0419 H   0  0  0  0  0  0  0  0  0  0  0  0  # atno 3414 bound_to 950 
  -24.1623   32.6118  -21.0784 H   0  0  0  0  0  0  0  0  0  0  0  0  # atno 3476 bound_to 1244
  -21.1917   31.0491  -19.1072 H   0  0  0  0  0  0  0  0  0  0  0  0  # atno 4380 bound_to 1912
  -23.9248   31.8397  -19.6658 LP  0  0  0  0  0  0  0  0  0  0  0  0  # atno 4866 bound_to 1244
  -22.9026   31.5947  -20.9155 LP  0  0  0  0  0  0  0  0  0  0  0  0  # atno 4867 bound_to 1244
  -21.1074   38.6975  -16.1568 LP  0  0  0  0  0  0  0  0  0  0  0  0  # atno 4874 bound_to 1223
  -20.3736   30.8706  -20.5025 LP  0  0  0  0  0  0  0  0  0  0  0  0  # atno 4875 bound_to 1912
  -19.8648   31.9488  -19.3865 LP  0  0  0  0  0  0  0  0  0  0  0  0  # atno 4876 bound_to 1912
  -18.8138   27.2970  -14.0089 LP  0  0  0  0  0  0  0  0  0  0  0  0  # atno 4881 bound_to 621 
  -18.0990   28.3626  -12.9989 LP  0  0  0  0  0  0  0  0  0  0  0  0  # atno 4882 bound_to 621 

$$$$
Compound 105|Decoys_protonated|sdf|105|dock3
  -GOLD-   6122416193D 1   1.00000     0.00000

 22 23  0  0  0  0  0  0  0  0  1 V2000
  -20.8798   35.3991  -18.1006 O   0  0  0  0  0  0  0  0  0  0  0  0
  -20.2558   35.1306  -17.0669 C   0  0  0  0  0  0  0  0  0  0  0  0
  -20.3452   35.9945  -16.0293 N   0  0  0  0  0  0  0  0  0  0  0  0
  -19.3681   33.9151  -17.0614 C   0  0  0  0  0  0  0  0  0  0  0  0
  -19.7265   36.0244  -14.7780 C   0  0  0  0  0  0  0  0  0  0  0  0
  -19.0110   33.4643  -18.3165 N   0  0  0  0  0  0  0  0  0  0  0  0
  -19.0422   33.2337  -15.9596 C   0  0  0  0  0  0  0  0  0  0  0  0
  -19.3006   34.9089  -14.0611 C   0  0  0  0  0  0  0  0  0  0  0  0
  -19.6250   37.2933  -14.1806 C   0  0  0  0  0  0  0  0  0  0  0  0
  -19.3717   33.5282  -14.5587 C   0  0  0  0  0  0  0  0  0  0  0  0
  -18.7865   35.0705  -12.7595 C   0  0  0  0  0  0  0  0  0  0  0  0
  -19.0974   37.4497  -12.8972 C   0  0  0  0  0  0  0  0  0  0  0  0
  -19.5632   32.5958  -13.7824 O   0  0  0  0  0  0  0  0  0  0  0  0
  -18.6797   36.3348  -12.1827 C   0  0  0  0  0  0  0  0  0  0  0  0
  -20.9278   36.7878  -16.2736 H   0  0  0  0  0  0  0  0  0  0  0  0
  -19.3300   33.9266  -19.1565 H   0  0  0  0  0  0  0  0  0  0  0  0
  -18.2259   32.8147  -18.3562 H   0  0  0  0  0  0  0  0  0  0  0  0
  -18.5021   32.2964  -16.0614 H   0  0  0  0  0  0  0  0  0  0  0  0
  -19.9574   38.1833  -14.7123 H   0  0  0  0  0  0  0  0  0  0  0  0
  -18.4665   34.1999  -12.1875 H   0  0  0  0  0  0  0  0  0  0  0  0
  -19.0239   38.4404  -12.4547 H   0  0  0  0  0  0  0  0  0  0  0  0
  -18.2780   36.4442  -11.1781 H   0  0  0  0  0  0  0  0  0  0  0  0
  1  2  2  0  0  0  0
  2  3  1  0  0  0  0
  2  4  1  0  0  0  0
  3  5  1  0  0  0  0
  3 15  1  0  0  0  0
  4  6  1  0  0  0  0
  4  7  2  0  0  0  0
  5  8  2  0  0  0  0
  5  9  1  0  0  0  0
  6 16  1  0  0  0  0
  6 17  1  0  0  0  0
  7 10  1  0  0  0  0
  7 18  1  0  0  0  0
  8 11  1  0  0  0  0
  8 10  1  0  0  0  0
  9 12  2  0  0  0  0
  9 19  1  0  0  0  0
 10 13  2  0  0  0  0
 11 14  2  0  0  0  0
 11 20  1  0  0  0  0
 12 14  1  0  0  0  0
 12 21  1  0  0  0  0
 14 22  1  0  0  0  0
M  END
>  <Column 1>
Nc1cc(=O)c2ccccc2[nH]c1=O ZINC000000017866

>  <Total Molweight>
188.186

>  <cLogP>
-0.2709

>  <cLogS>
-2.507

>  <H-Acceptors>
4

>  <H-Donors>
2

>  <Total Surface Area>
139.95

>  <MMFF94 Energy>
63.753

> <Gold.Version>
5.8.1

> <Gold.Id.Protein>
ID|2FQT|mol2

> <Gold.PLP.Fitness>
41.3211

> <Gold.PLP.PLP>
-33.4914

> <Gold.PLP.part.hbond>
-5.7476

> <Gold.PLP.part.metal>
0.0000

> <Gold.PLP.part.buried>
-2.6208

> <Gold.PLP.part.nonpolar>
-28.4066

> <Gold.PLP.part.repulsive>
1.8984

> <Gold.PLP.ligand.clash>
0.0000

> <Gold.PLP.ligand.torsion>
0.0000

> <Gold.PLP.Chemscore.Hbond>
2.6099

> <Gold.PLP.Chemscore.CHOScore>
0.0000

> <Gold.PLP.Chemscore.Metal>
0.0000

> <Gold.Chemscore.Hbonds>
donor molecule, donor type, donor heavy atom, donor atom, acceptor molecule, acceptor atom, score
      L1  H     3    15       P1  1223  0.63
      P1  H  1239  3336       L1     1  1.00
      P1  H   608  3069       L1    13  0.98

> <Gold.PLP.Chemscore.Internal.Correction>
0.0000

> <Gold.Protein.RotatedTorsions>
[ 3412  950  949  948 ] final  -22.23 input   60.00 | X-H torsion
[ 3476 1244 1243 1240 ] final -172.58 input   60.00 | X-H torsion
[ 2649 1223 1224 1225 ] final   37.09 input   60.00 | X-H torsion
[ 4380 1912 1911 1909 ] final  -88.50 input   60.00 | X-H torsion
[ 3084  621  620  617 ] final  -47.72 input   60.00 | X-H torsion

> <Gold.Protein.ActiveResidues>
 HIS54   GLU57   HIS58   ALA61   PHE62   ILE64   ARG65   ASP75   ILE76   ILE77  
 ASP78   ILE79   SER80   PRO81   ILE118  PRO119  ALA120  ALA121  ASN122  LYS124 
 GLN125  CYS126  GLY127  CO701   VAL4    GLU5    SER6    PHE7    GLU8    LEU9   
 HIS11   ARG20   HIS21   CYS22   GLY23   VAL24   HIS25   LYS35   ARG39   MET82  
 GLY83   CYS84   TYR89  

> <Gold.Protein.RotatedAtoms>
  -20.1978   38.1739  -17.4825 H   0  0  0  0  0  0  0  0  0  0  0  0  # atno 2649 bound_to 1223
  -21.0400   38.7620  -16.1818 H   0  0  0  0  0  0  0  0  0  0  0  0  # atno 2650 bound_to 1223
  -19.7568   28.2987  -13.6170 H   0  0  0  0  0  0  0  0  0  0  0  0  # atno 3084 bound_to 621 
  -28.9159   38.5063  -28.0526 H   0  0  0  0  0  0  0  0  0  0  0  0  # atno 3412 bound_to 950 
  -27.7499   37.6595  -28.8716 H   0  0  0  0  0  0  0  0  0  0  0  0  # atno 3413 bound_to 950 
  -28.1647   39.1869  -29.3639 H   0  0  0  0  0  0  0  0  0  0  0  0  # atno 3414 bound_to 950 
  -23.7274   31.6989  -19.6762 H   0  0  0  0  0  0  0  0  0  0  0  0  # atno 3476 bound_to 1244
  -20.7213   30.6868  -20.3386 H   0  0  0  0  0  0  0  0  0  0  0  0  # atno 4380 bound_to 1912
  -22.9638   31.7233  -21.1130 LP  0  0  0  0  0  0  0  0  0  0  0  0  # atno 4866 bound_to 1244
  -24.3015   32.6305  -20.8805 LP  0  0  0  0  0  0  0  0  0  0  0  0  # atno 4867 bound_to 1244
  -21.3745   37.2654  -16.7777 LP  0  0  0  0  0  0  0  0  0  0  0  0  # atno 4874 bound_to 1223
  -19.7177   31.8354  -19.7716 LP  0  0  0  0  0  0  0  0  0  0  0  0  # atno 4875 bound_to 1912
  -20.9944   31.3488  -18.8773 LP  0  0  0  0  0  0  0  0  0  0  0  0  # atno 4876 bound_to 1912
  -18.4944   27.3087  -13.8896 LP  0  0  0  0  0  0  0  0  0  0  0  0  # atno 4881 bound_to 621 
  -18.3244   28.6014  -12.9064 LP  0  0  0  0  0  0  0  0  0  0  0  0  # atno 4882 bound_to 621 

$$$$
Compound 106|Decoys_protonated|sdf|106|dock9
  -GOLD-   6122416193D 1   1.00000     0.00000

 21 22  0  0  0  0  0  0  0  0  1 V2000
  -21.0325   35.3987  -17.7935 O   0  0  0  0  0  0  0  0  0  0  0  0
  -20.9004   34.3442  -17.1812 C   0  0  0  0  0  0  0  0  0  0  0  0
  -19.6673   33.7664  -16.9889 N   0  0  0  0  0  0  0  0  0  0  0  0
  -22.0604   33.6081  -16.6022 C   0  0  0  0  0  0  0  0  0  0  0  0
  -19.4711   32.5890  -16.3177 C   0  0  0  0  0  0  0  0  0  0  0  0
  -21.8559   32.4451  -15.9514 C   0  0  0  0  0  0  0  0  0  0  0  0
  -23.4325   34.2016  -16.7480 C   0  0  0  0  0  0  0  0  0  0  0  0
  -20.5130   31.9248  -15.8034 C   0  0  0  0  0  0  0  0  0  0  0  0
  -22.9095   31.7315  -15.4233 N   0  0  0  0  0  0  0  0  0  0  0  0
  -24.4281   33.6088  -15.7403 C   0  0  0  0  0  0  0  0  0  0  0  0
  -24.2972   32.0891  -15.6531 C   0  0  0  0  0  0  0  0  0  0  0  0
  -18.8820   34.2703  -17.3815 H   0  0  0  0  0  0  0  0  0  0  0  0
  -18.4493   32.2360  -16.2304 H   0  0  0  0  0  0  0  0  0  0  0  0
  -23.7896   34.0184  -17.7688 H   0  0  0  0  0  0  0  0  0  0  0  0
  -23.4005   35.2877  -16.6034 H   0  0  0  0  0  0  0  0  0  0  0  0
  -20.3630   30.9931  -15.2705 H   0  0  0  0  0  0  0  0  0  0  0  0
  -22.7101   30.8470  -14.9697 H   0  0  0  0  0  0  0  0  0  0  0  0
  -24.2337   34.0436  -14.7507 H   0  0  0  0  0  0  0  0  0  0  0  0
  -25.4517   33.8865  -16.0154 H   0  0  0  0  0  0  0  0  0  0  0  0
  -24.9189   31.7014  -14.8396 H   0  0  0  0  0  0  0  0  0  0  0  0
  -24.6406   31.6260  -16.5852 H   0  0  0  0  0  0  0  0  0  0  0  0
  1  2  2  0  0  0  0
  2  3  1  0  0  0  0
  2  4  1  0  0  0  0
  3  5  1  0  0  0  0
  3 12  1  0  0  0  0
  4  6  2  0  0  0  0
  4  7  1  0  0  0  0
  5  8  2  0  0  0  0
  5 13  1  0  0  0  0
  6  9  1  0  0  0  0
  6  8  1  0  0  0  0
  7 10  1  0  0  0  0
  7 14  1  0  0  0  0
  7 15  1  0  0  0  0
  8 16  1  0  0  0  0
  9 11  1  0  0  0  0
  9 17  1  0  0  0  0
 10 11  1  0  0  0  0
 10 18  1  0  0  0  0
 10 19  1  0  0  0  0
 11 20  1  0  0  0  0
 11 21  1  0  0  0  0
M  END
>  <Column 1>
O=c1[nH]ccc2c1CCCN2 ZINC000000018291

>  <Total Molweight>
150.18

>  <cLogP>
-0.1641

>  <cLogS>
-1.536

>  <H-Acceptors>
3

>  <H-Donors>
2

>  <Total Surface Area>
117.87

>  <MMFF94 Energy>
-24.052

> <Gold.Version>
5.8.1

> <Gold.Id.Protein>
ID|2FQT|mol2

> <Gold.PLP.Fitness>
38.6792

> <Gold.PLP.PLP>
-29.6819

> <Gold.PLP.part.hbond>
-2.9965

> <Gold.PLP.part.metal>
0.0000

> <Gold.PLP.part.buried>
-5.0562

> <Gold.PLP.part.nonpolar>
-22.1000

> <Gold.PLP.part.repulsive>
0.1348

> <Gold.PLP.ligand.clash>
0.0000

> <Gold.PLP.ligand.torsion>
0.0000

> <Gold.PLP.Chemscore.Hbond>
2.0000

> <Gold.PLP.Chemscore.CHOScore>
0.9991

> <Gold.PLP.Chemscore.Metal>
0.0000

> <Gold.Chemscore.Hbonds>
donor molecule, donor type, donor heavy atom, donor atom, acceptor molecule, acceptor atom, score
      P1  H  1223  2649       L1     1  1.00
      P1  H  1239  3336       L1     1  1.00
      L1  C     5    13       P1   606  1.00

> <Gold.PLP.Chemscore.Internal.Correction>
0.0000

> <Gold.Protein.RotatedTorsions>
[ 3412  950  949  948 ] final   28.70 input   60.00 | X-H torsion
[ 3476 1244 1243 1240 ] final   10.87 input   60.00 | X-H torsion
[ 2649 1223 1224 1225 ] final  -42.41 input   60.00 | X-H torsion
[ 4380 1912 1911 1909 ] final  -11.93 input   60.00 | X-H torsion
[ 3084  621  620  617 ] final -162.35 input   60.00 | X-H torsion

> <Gold.Protein.ActiveResidues>
 HIS54   GLU57   HIS58   ALA61   PHE62   ILE64   ARG65   ASP75   ILE76   ILE77  
 ASP78   ILE79   SER80   PRO81   ILE118  PRO119  ALA120  ALA121  ASN122  LYS124 
 GLN125  CYS126  GLY127  CO701   VAL4    GLU5    SER6    PHE7    GLU8    LEU9   
 HIS11   ARG20   HIS21   CYS22   GLY23   VAL24   HIS25   LYS35   ARG39   MET82  
 GLY83   CYS84   TYR89  

> <Gold.Protein.RotatedAtoms>
  -20.9415   37.2252  -17.2710 H   0  0  0  0  0  0  0  0  0  0  0  0  # atno 2649 bound_to 1223
  -20.2324   38.7135  -17.1001 H   0  0  0  0  0  0  0  0  0  0  0  0  # atno 2650 bound_to 1223
  -18.5763   27.2999  -13.9213 H   0  0  0  0  0  0  0  0  0  0  0  0  # atno 3084 bound_to 621 
  -28.4936   37.8012  -28.0945 H   0  0  0  0  0  0  0  0  0  0  0  0  # atno 3412 bound_to 950 
  -27.6080   38.2573  -29.4192 H   0  0  0  0  0  0  0  0  0  0  0  0  # atno 3413 bound_to 950 
  -28.7289   39.2943  -28.7744 H   0  0  0  0  0  0  0  0  0  0  0  0  # atno 3414 bound_to 950 
  -23.5535   32.3052  -21.4382 H   0  0  0  0  0  0  0  0  0  0  0  0  # atno 3476 bound_to 1244
  -21.2461   30.8768  -19.3216 H   0  0  0  0  0  0  0  0  0  0  0  0  # atno 4380 bound_to 1912
  -24.3845   32.3412  -20.0396 LP  0  0  0  0  0  0  0  0  0  0  0  0  # atno 4866 bound_to 1244
  -23.0559   31.4020  -20.1794 LP  0  0  0  0  0  0  0  0  0  0  0  0  # atno 4867 bound_to 1244
  -21.4374   38.2477  -16.0814 LP  0  0  0  0  0  0  0  0  0  0  0  0  # atno 4874 bound_to 1223
  -20.1504   31.0431  -20.5131 LP  0  0  0  0  0  0  0  0  0  0  0  0  # atno 4875 bound_to 1912
  -20.0333   31.9497  -19.1600 LP  0  0  0  0  0  0  0  0  0  0  0  0  # atno 4876 bound_to 1912
  -18.2583   28.5454  -12.9235 LP  0  0  0  0  0  0  0  0  0  0  0  0  # atno 4881 bound_to 621 
  -19.7493   28.3705  -13.5661 LP  0  0  0  0  0  0  0  0  0  0  0  0  # atno 4882 bound_to 621 

$$$$
Compound 107|Decoys_protonated|sdf|107|dock3
  -GOLD-   6122416193D 1   1.00000     0.00000

 31 33  0  0  0  0  0  0  0  0  1 V2000
  -19.9371   33.6133  -17.8249 O   0  0  0  0  0  0  0  0  0  0  0  0
  -20.1432   34.4249  -16.7382 C   0  0  0  0  0  0  0  0  0  0  0  0
  -18.7609   34.0513  -18.3534 C   0  0  0  0  0  0  0  0  0  0  0  0
  -19.1948   35.3203  -16.5450 N   0  0  0  0  0  0  0  0  0  0  0  0
  -21.2576   34.2161  -16.0075 N   0  0  0  0  0  0  0  0  0  0  0  0
  -18.3105   35.0962  -17.5672 C   0  0  0  0  0  0  0  0  0  0  0  0
  -18.1037   33.5614  -19.4753 C   0  0  0  0  0  0  0  0  0  0  0  0
  -22.5212   34.8817  -16.3177 C   0  0  0  0  0  0  0  0  0  0  0  0
  -21.4110   32.9582  -15.2770 C   0  0  0  0  0  0  0  0  0  0  0  0
  -17.1055   35.7266  -17.9023 C   0  0  0  0  0  0  0  0  0  0  0  0
  -16.9005   34.2008  -19.7993 C   0  0  0  0  0  0  0  0  0  0  0  0
  -23.4369   33.9126  -17.1051 C   0  0  0  0  0  0  0  0  0  0  0  0
  -22.3366   32.0064  -16.0730 C   0  0  0  0  0  0  0  0  0  0  0  0
  -16.4084   35.2632  -19.0292 C   0  0  0  0  0  0  0  0  0  0  0  0
  -23.6470   32.6258  -16.3963 N   0  0  0  0  0  0  0  0  0  0  0  0
  -24.4578   31.7187  -17.2052 C   0  0  0  0  0  0  0  0  0  0  0  0
  -18.5017   32.7403  -20.0576 H   0  0  0  0  0  0  0  0  0  0  0  0
  -23.0139   35.1626  -15.3779 H   0  0  0  0  0  0  0  0  0  0  0  0
  -22.3881   35.8105  -16.8838 H   0  0  0  0  0  0  0  0  0  0  0  0
  -20.4512   32.4663  -15.0788 H   0  0  0  0  0  0  0  0  0  0  0  0
  -21.8600   33.1681  -14.2977 H   0  0  0  0  0  0  0  0  0  0  0  0
  -16.7294   36.5488  -17.3042 H   0  0  0  0  0  0  0  0  0  0  0  0
  -16.3369   33.8655  -20.6682 H   0  0  0  0  0  0  0  0  0  0  0  0
  -22.9960   33.7313  -18.0945 H   0  0  0  0  0  0  0  0  0  0  0  0
  -24.4051   34.4038  -17.2596 H   0  0  0  0  0  0  0  0  0  0  0  0
  -22.5004   31.1037  -15.4722 H   0  0  0  0  0  0  0  0  0  0  0  0
  -21.8254   31.7018  -16.9962 H   0  0  0  0  0  0  0  0  0  0  0  0
  -15.4706   35.7396  -19.3083 H   0  0  0  0  0  0  0  0  0  0  0  0
  -25.4383   32.1620  -17.4116 H   0  0  0  0  0  0  0  0  0  0  0  0
  -23.9815   31.4752  -18.1617 H   0  0  0  0  0  0  0  0  0  0  0  0
  -24.6423   30.7840  -16.6642 H   0  0  0  0  0  0  0  0  0  0  0  0
  1  2  1  0  0  0  0
  1  3  1  0  0  0  0
  2  4  2  0  0  0  0
  2  5  1  0  0  0  0
  3  6  2  0  0  0  0
  3  7  1  0  0  0  0
  4  6  1  0  0  0  0
  5  8  1  0  0  0  0
  5  9  1  0  0  0  0
  6 10  1  0  0  0  0
  7 11  2  0  0  0  0
  7 17  1  0  0  0  0
  8 12  1  0  0  0  0
  8 18  1  0  0  0  0
  8 19  1  0  0  0  0
  9 13  1  0  0  0  0
  9 20  1  0  0  0  0
  9 21  1  0  0  0  0
 10 14  2  0  0  0  0
 10 22  1  0  0  0  0
 11 14  1  0  0  0  0
 11 23  1  0  0  0  0
 12 15  1  0  0  0  0
 12 24  1  0  0  0  0
 12 25  1  0  0  0  0
 13 15  1  0  0  0  0
 13 26  1  0  0  0  0
 13 27  1  0  0  0  0
 14 28  1  0  0  0  0
 15 16  1  0  0  0  0
 16 29  1  0  0  0  0
 16 30  1  0  0  0  0
 16 31  1  0  0  0  0
M  END
>  <Column 1>
CN1CCN(c2nc3ccccc3o2)CC1 ZINC000000019141

>  <Total Molweight>
217.271

>  <cLogP>
1.8193

>  <cLogS>
-2.337

>  <H-Acceptors>
4

>  <H-Donors>
0

>  <Total Surface Area>
170.71

>  <MMFF94 Energy>
46.27

> <Gold.Version>
5.8.1

> <Gold.Id.Protein>
ID|2FQT|mol2

> <Gold.PLP.Fitness>
44.7318

> <Gold.PLP.PLP>
-44.3503

> <Gold.PLP.part.hbond>
-1.0000

> <Gold.PLP.part.metal>
0.0000

> <Gold.PLP.part.buried>
-4.8866

> <Gold.PLP.part.nonpolar>
-38.5535

> <Gold.PLP.part.repulsive>
0.0244

> <Gold.PLP.ligand.clash>
0.0000

> <Gold.PLP.ligand.torsion>
1.3706

> <Gold.PLP.Chemscore.Hbond>
0.9913

> <Gold.PLP.Chemscore.CHOScore>
0.0000

> <Gold.PLP.Chemscore.Metal>
0.0000

> <Gold.Chemscore.Hbonds>
donor molecule, donor type, donor heavy atom, donor atom, acceptor molecule, acceptor atom, score
      P1  H  1912  4380       L1     1  0.99

> <Gold.PLP.Chemscore.Internal.Correction>
0.1489

> <Gold.Protein.RotatedTorsions>
[ 3412  950  949  948 ] final  116.53 input   60.00 | X-H torsion
[ 3476 1244 1243 1240 ] final   39.65 input   60.00 | X-H torsion
[ 2649 1223 1224 1225 ] final   47.43 input   60.00 | X-H torsion
[ 4380 1912 1911 1909 ] final   90.17 input   60.00 | X-H torsion
[ 3084  621  620  617 ] final   23.93 input   60.00 | X-H torsion

> <Gold.Protein.ActiveResidues>
 HIS54   GLU57   HIS58   ALA61   PHE62   ILE64   ARG65   ASP75   ILE76   ILE77  
 ASP78   ILE79   SER80   PRO81   ILE118  PRO119  ALA120  ALA121  ASN122  LYS124 
 GLN125  CYS126  GLY127  CO701   VAL4    GLU5    SER6    PHE7    GLU8    LEU9   
 HIS11   ARG20   HIS21   CYS22   GLY23   VAL24   HIS25   LYS35   ARG39   MET82  
 GLY83   CYS84   TYR89  

> <Gold.Protein.RotatedAtoms>
  -20.1737   38.3286  -17.4103 H   0  0  0  0  0  0  0  0  0  0  0  0  # atno 2649 bound_to 1223
  -21.1595   38.6551  -16.1186 H   0  0  0  0  0  0  0  0  0  0  0  0  # atno 2650 bound_to 1223
  -19.0506   28.8450  -12.9814 H   0  0  0  0  0  0  0  0  0  0  0  0  # atno 3084 bound_to 621 
  -27.6384   37.8280  -29.1093 H   0  0  0  0  0  0  0  0  0  0  0  0  # atno 3412 bound_to 950 
  -28.3872   39.3051  -29.1799 H   0  0  0  0  0  0  0  0  0  0  0  0  # atno 3413 bound_to 950 
  -28.8049   38.2197  -27.9989 H   0  0  0  0  0  0  0  0  0  0  0  0  # atno 3414 bound_to 950 
  -23.2004   32.0105  -21.3676 H   0  0  0  0  0  0  0  0  0  0  0  0  # atno 3476 bound_to 1244
  -20.2507   31.8822  -18.9766 H   0  0  0  0  0  0  0  0  0  0  0  0  # atno 4380 bound_to 1912
  -24.4341   32.5521  -20.4550 LP  0  0  0  0  0  0  0  0  0  0  0  0  # atno 4866 bound_to 1244
  -23.3619   31.4878  -19.8351 LP  0  0  0  0  0  0  0  0  0  0  0  0  # atno 4867 bound_to 1244
  -21.2804   37.2183  -16.9110 LP  0  0  0  0  0  0  0  0  0  0  0  0  # atno 4874 bound_to 1223
  -21.2362   30.7348  -19.5769 LP  0  0  0  0  0  0  0  0  0  0  0  0  # atno 4875 bound_to 1912
  -19.9499   31.2456  -20.4437 LP  0  0  0  0  0  0  0  0  0  0  0  0  # atno 4876 bound_to 1912
  -19.5331   27.6664  -13.9944 LP  0  0  0  0  0  0  0  0  0  0  0  0  # atno 4881 bound_to 621 
  -17.9968   27.6936  -13.4417 LP  0  0  0  0  0  0  0  0  0  0  0  0  # atno 4882 bound_to 621 

$$$$
Compound 108|Decoys_protonated|sdf|108|dock7
  -GOLD-   6122416193D 1   1.00000     0.00000

 25 26  0  0  0  0  0  0  0  0  1 V2000
  -17.0158   36.9293  -17.2349 O   0  0  0  0  0  0  0  0  0  0  0  0
  -17.3343   35.9148  -17.8577 C   0  0  0  0  0  0  0  0  0  0  0  0
  -18.4790   35.1808  -17.5518 N   0  0  0  0  0  0  0  0  0  0  0  0
  -16.5663   35.4198  -18.9127 N   0  0  0  0  0  0  0  0  0  0  0  0
  -18.8577   34.0189  -18.1967 C   0  0  0  0  0  0  0  0  0  0  0  0
  -19.3276   35.6653  -16.4772 C   0  0  0  0  0  0  0  0  0  0  0  0
  -16.9073   34.2817  -19.6040 C   0  0  0  0  0  0  0  0  0  0  0  0
  -15.3569   36.1292  -19.3108 C   0  0  0  0  0  0  0  0  0  0  0  0
  -19.8427   33.3405  -17.9139 O   0  0  0  0  0  0  0  0  0  0  0  0
  -17.9931   33.5749  -19.3008 C   0  0  0  0  0  0  0  0  0  0  0  0
  -19.4715   34.6007  -15.4397 C   0  0  0  0  0  0  0  0  0  0  0  0
  -18.5801   34.2911  -14.4316 C   0  0  0  0  0  0  0  0  0  0  0  0
  -20.5545   33.6893  -15.2765 C   0  0  0  0  0  0  0  0  0  0  0  0
  -19.0418   33.2627  -13.6765 O   0  0  0  0  0  0  0  0  0  0  0  0
  -20.2428   32.9016  -14.1944 C   0  0  0  0  0  0  0  0  0  0  0  0
  -18.8911   36.5647  -16.0270 H   0  0  0  0  0  0  0  0  0  0  0  0
  -20.3130   35.9484  -16.8652 H   0  0  0  0  0  0  0  0  0  0  0  0
  -16.2505   33.9767  -20.4138 H   0  0  0  0  0  0  0  0  0  0  0  0
  -15.4524   36.4353  -20.3576 H   0  0  0  0  0  0  0  0  0  0  0  0
  -15.1811   37.0198  -18.7022 H   0  0  0  0  0  0  0  0  0  0  0  0
  -14.4990   35.4576  -19.2032 H   0  0  0  0  0  0  0  0  0  0  0  0
  -18.2798   32.6757  -19.8294 H   0  0  0  0  0  0  0  0  0  0  0  0
  -17.6224   34.6977  -14.1337 H   0  0  0  0  0  0  0  0  0  0  0  0
  -21.4532   33.6251  -15.8759 H   0  0  0  0  0  0  0  0  0  0  0  0
  -20.7428   32.0857  -13.6918 H   0  0  0  0  0  0  0  0  0  0  0  0
  1  2  2  0  0  0  0
  2  3  1  0  0  0  0
  2  4  1  0  0  0  0
  3  5  1  0  0  0  0
  3  6  1  0  0  0  0
  4  7  1  0  0  0  0
  4  8  1  0  0  0  0
  5  9  2  0  0  0  0
  5 10  1  0  0  0  0
  6 11  1  0  0  0  0
  6 16  1  0  0  0  0
  6 17  1  0  0  0  0
  7 10  2  0  0  0  0
  7 18  1  0  0  0  0
  8 19  1  0  0  0  0
  8 20  1  0  0  0  0
  8 21  1  0  0  0  0
 10 22  1  0  0  0  0
 11 12  2  0  0  0  0
 11 13  1  0  0  0  0
 12 14  1  0  0  0  0
 12 23  1  0  0  0  0
 13 15  2  0  0  0  0
 13 24  1  0  0  0  0
 14 15  1  0  0  0  0
 15 25  1  0  0  0  0
M  END
>  <Column 1>
Cn1ccc(=O)n(Cc2ccoc2)c1=O ZINC000000019214

>  <Total Molweight>
206.2

>  <cLogP>
0.0174

>  <cLogS>
-1.509

>  <H-Acceptors>
5

>  <H-Donors>
0

>  <Total Surface Area>
158.07

>  <MMFF94 Energy>
-81.581

> <Gold.Version>
5.8.1

> <Gold.Id.Protein>
ID|2FQT|mol2

> <Gold.PLP.Fitness>
48.1995

> <Gold.PLP.PLP>
-40.2111

> <Gold.PLP.part.hbond>
-2.0000

> <Gold.PLP.part.metal>
0.0000

> <Gold.PLP.part.buried>
-5.2497

> <Gold.PLP.part.nonpolar>
-35.0056

> <Gold.PLP.part.repulsive>
0.2841

> <Gold.PLP.ligand.clash>
0.0000

> <Gold.PLP.ligand.torsion>
0.3117

> <Gold.PLP.Chemscore.Hbond>
1.8705

> <Gold.PLP.Chemscore.CHOScore>
1.0000

> <Gold.PLP.Chemscore.Metal>
0.0000

> <Gold.Chemscore.Hbonds>
donor molecule, donor type, donor heavy atom, donor atom, acceptor molecule, acceptor atom, score
      P1  H  1912  4380       L1     9  1.00
      P1  H   608  3069       L1    14  0.87
      L1  C    15    25       P1   611  1.00

> <Gold.PLP.Chemscore.Internal.Correction>
0.0004

> <Gold.Protein.RotatedTorsions>
[ 3412  950  949  948 ] final  -98.39 input   60.00 | X-H torsion
[ 3476 1244 1243 1240 ] final   41.60 input   60.00 | X-H torsion
[ 2649 1223 1224 1225 ] final  -52.93 input   60.00 | X-H torsion
[ 4380 1912 1911 1909 ] final   77.49 input   60.00 | X-H torsion
[ 3084  621  620  617 ] final   99.19 input   60.00 | X-H torsion

> <Gold.Protein.ActiveResidues>
 HIS54   GLU57   HIS58   ALA61   PHE62   ILE64   ARG65   ASP75   ILE76   ILE77  
 ASP78   ILE79   SER80   PRO81   ILE118  PRO119  ALA120  ALA121  ASN122  LYS124 
 GLN125  CYS126  GLY127  CO701   VAL4    GLU5    SER6    PHE7    GLU8    LEU9   
 HIS11   ARG20   HIS21   CYS22   GLY23   VAL24   HIS25   LYS35   ARG39   MET82  
 GLY83   CYS84   TYR89  

> <Gold.Protein.RotatedAtoms>
  -21.0679   37.1903  -17.1545 H   0  0  0  0  0  0  0  0  0  0  0  0  # atno 2649 bound_to 1223
  -20.1903   38.5947  -17.2221 H   0  0  0  0  0  0  0  0  0  0  0  0  # atno 2650 bound_to 1223
  -18.0574   28.2817  -13.0393 H   0  0  0  0  0  0  0  0  0  0  0  0  # atno 3084 bound_to 621 
  -28.6623   39.3204  -28.8687 H   0  0  0  0  0  0  0  0  0  0  0  0  # atno 3412 bound_to 950 
  -28.5719   37.8800  -28.0536 H   0  0  0  0  0  0  0  0  0  0  0  0  # atno 3413 bound_to 950 
  -27.5964   38.1524  -29.3657 H   0  0  0  0  0  0  0  0  0  0  0  0  # atno 3414 bound_to 950 
  -23.1798   31.9898  -21.3550 H   0  0  0  0  0  0  0  0  0  0  0  0  # atno 3476 bound_to 1244
  -20.4181   31.8034  -18.8843 H   0  0  0  0  0  0  0  0  0  0  0  0  # atno 4380 bound_to 1912
  -24.4304   32.5621  -20.4853 LP  0  0  0  0  0  0  0  0  0  0  0  0  # atno 4866 bound_to 1244
  -23.3864   31.4988  -19.8174 LP  0  0  0  0  0  0  0  0  0  0  0  0  # atno 4867 bound_to 1244
  -21.3543   38.3992  -16.0759 LP  0  0  0  0  0  0  0  0  0  0  0  0  # atno 4874 bound_to 1223
  -21.1796   30.6669  -19.7655 LP  0  0  0  0  0  0  0  0  0  0  0  0  # atno 4875 bound_to 1912
  -19.8379   31.3928  -20.3481 LP  0  0  0  0  0  0  0  0  0  0  0  0  # atno 4876 bound_to 1912
  -19.6204   28.6144  -13.3470 LP  0  0  0  0  0  0  0  0  0  0  0  0  # atno 4881 bound_to 621 
  -18.9098   27.3128  -14.0308 LP  0  0  0  0  0  0  0  0  0  0  0  0  # atno 4882 bound_to 621 

$$$$
Compound 109|Decoys_protonated|sdf|109|dock7
  -GOLD-   6122416193D 1   1.00000     0.00000

 16 16  0  0  0  0  0  0  0  0  1 V2000
  -16.0131   34.6735  -19.6000 F   0  0  0  0  0  0  0  0  0  0  0  0
  -16.6935   35.4750  -18.7509 C   0  0  0  0  0  0  0  0  0  0  0  0
  -17.9817   34.9993  -18.2971 C   0  0  0  0  0  0  0  0  0  0  0  0
  -16.1188   36.6298  -18.3955 C   0  0  0  0  0  0  0  0  0  0  0  0
  -18.8939   35.9297  -17.5598 C   0  0  0  0  0  0  0  0  0  0  0  0
  -18.4096   33.7375  -18.4650 C   0  0  0  0  0  0  0  0  0  0  0  0
  -18.6293   37.1136  -17.3734 O   0  0  0  0  0  0  0  0  0  0  0  0
  -20.0763   35.3974  -17.1154 N   0  0  0  0  0  0  0  0  0  0  0  0
  -19.6226   33.3128  -17.9957 N   0  0  0  0  0  0  0  0  0  0  0  0
  -20.4928   34.1135  -17.3104 C   0  0  0  0  0  0  0  0  0  0  0  0
  -21.5724   33.6999  -16.9032 O   0  0  0  0  0  0  0  0  0  0  0  0
  -15.1413   36.8850  -18.7915 H   0  0  0  0  0  0  0  0  0  0  0  0
  -16.5804   37.3253  -17.7046 H   0  0  0  0  0  0  0  0  0  0  0  0
  -17.8145   32.9825  -18.9705 H   0  0  0  0  0  0  0  0  0  0  0  0
  -20.6991   36.0137  -16.6174 H   0  0  0  0  0  0  0  0  0  0  0  0
  -19.9256   32.3549  -18.1352 H   0  0  0  0  0  0  0  0  0  0  0  0
  1  2  1  0  0  0  0
  2  3  1  0  0  0  0
  2  4  2  0  0  0  0
  3  5  1  0  0  0  0
  3  6  2  0  0  0  0
  4 12  1  0  0  0  0
  4 13  1  0  0  0  0
  5  7  2  0  0  0  0
  5  8  1  0  0  0  0
  6  9  1  0  0  0  0
  6 14  1  0  0  0  0
  8 10  1  0  0  0  0
  8 15  1  0  0  0  0
  9 10  1  0  0  0  0
  9 16  1  0  0  0  0
 10 11  2  0  0  0  0
M  END
>  <Column 1>
C=C(F)c1c[nH]c(=O)[nH]c1=O ZINC000000019687

>  <Total Molweight>
156.116

>  <cLogP>
0.2023

>  <cLogS>
-2.098

>  <H-Acceptors>
4

>  <H-Donors>
2

>  <Total Surface Area>
112.23

>  <MMFF94 Energy>
-74.755

> <Gold.Version>
5.8.1

> <Gold.Id.Protein>
ID|2FQT|mol2

> <Gold.PLP.Fitness>
35.0401

> <Gold.PLP.PLP>
-28.5739

> <Gold.PLP.part.hbond>
-4.0000

> <Gold.PLP.part.metal>
0.0000

> <Gold.PLP.part.buried>
-3.4363

> <Gold.PLP.part.nonpolar>
-20.9854

> <Gold.PLP.part.repulsive>
0.2542

> <Gold.PLP.ligand.clash>
0.0000

> <Gold.PLP.ligand.torsion>
0.0674

> <Gold.PLP.Chemscore.Hbond>
2.2001

> <Gold.PLP.Chemscore.CHOScore>
0.0000

> <Gold.PLP.Chemscore.Metal>
0.0000

> <Gold.Chemscore.Hbonds>
donor molecule, donor type, donor heavy atom, donor atom, acceptor molecule, acceptor atom, score
      L1  H     8    15       P1  1223  0.09
      L1  H     9    16       P1  1912  0.59
      P1  H  1223  2649       L1     7  0.72
      P1  H  1230  2756       L1     7  0.80

> <Gold.PLP.Chemscore.Internal.Correction>
0.0009

> <Gold.Protein.RotatedTorsions>
[ 3412  950  949  948 ] final  -68.15 input   60.00 | X-H torsion
[ 3476 1244 1243 1240 ] final  -29.70 input   60.00 | X-H torsion
[ 2649 1223 1224 1225 ] final   37.32 input   60.00 | X-H torsion
[ 4380 1912 1911 1909 ] final  -36.47 input   60.00 | X-H torsion
[ 3084  621  620  617 ] final -117.28 input   60.00 | X-H torsion

> <Gold.Protein.ActiveResidues>
 HIS54   GLU57   HIS58   ALA61   PHE62   ILE64   ARG65   ASP75   ILE76   ILE77  
 ASP78   ILE79   SER80   PRO81   ILE118  PRO119  ALA120  ALA121  ASN122  LYS124 
 GLN125  CYS126  GLY127  CO701   VAL4    GLU5    SER6    PHE7    GLU8    LEU9   
 HIS11   ARG20   HIS21   CYS22   GLY23   VAL24   HIS25   LYS35   ARG39   MET82  
 GLY83   CYS84   TYR89  

> <Gold.Protein.RotatedAtoms>
  -20.1970   38.1775  -17.4812 H   0  0  0  0  0  0  0  0  0  0  0  0  # atno 2649 bound_to 1223
  -21.0427   38.7598  -16.1801 H   0  0  0  0  0  0  0  0  0  0  0  0  # atno 2650 bound_to 1223
  -19.2652   27.4549  -14.0496 H   0  0  0  0  0  0  0  0  0  0  0  0  # atno 3084 bound_to 621 
  -28.8935   39.1228  -28.4728 H   0  0  0  0  0  0  0  0  0  0  0  0  # atno 3412 bound_to 950 
  -28.2218   37.6180  -28.2946 H   0  0  0  0  0  0  0  0  0  0  0  0  # atno 3413 bound_to 950 
  -27.7153   38.6119  -29.5206 H   0  0  0  0  0  0  0  0  0  0  0  0  # atno 3414 bound_to 950 
  -24.0753   32.5863  -21.1735 H   0  0  0  0  0  0  0  0  0  0  0  0  # atno 3476 bound_to 1244
  -21.2045   30.6981  -19.6746 H   0  0  0  0  0  0  0  0  0  0  0  0  # atno 4380 bound_to 1912
  -24.0244   31.9238  -19.6881 LP  0  0  0  0  0  0  0  0  0  0  0  0  # atno 4866 bound_to 1244
  -22.8905   31.5362  -20.7974 LP  0  0  0  0  0  0  0  0  0  0  0  0  # atno 4867 bound_to 1244
  -21.3725   37.2640  -16.7807 LP  0  0  0  0  0  0  0  0  0  0  0  0  # atno 4874 bound_to 1223
  -19.8876   31.3229  -20.3981 LP  0  0  0  0  0  0  0  0  0  0  0  0  # atno 4875 bound_to 1912
  -20.3379   31.8499  -18.9195 LP  0  0  0  0  0  0  0  0  0  0  0  0  # atno 4876 bound_to 1912
  -17.9546   27.9666  -13.2318 LP  0  0  0  0  0  0  0  0  0  0  0  0  # atno 4881 bound_to 621 
  -19.3592   28.7931  -13.1285 LP  0  0  0  0  0  0  0  0  0  0  0  0  # atno 4882 bound_to 621 

$$$$
Compound 110|Decoys_protonated|sdf|110|dock10
  -GOLD-   6122416193D 1   1.00000     0.00000

 33 35  0  0  0  0  0  0  0  0  1 V2000
  -25.0716   28.0532  -19.3605 Cl  0  0  0  0  0  0  0  0  0  0  0  0
  -24.6320   29.4145  -18.3941 C   0  0  0  0  0  0  0  0  0  0  0  0
  -25.2546   30.6601  -18.4625 C   0  0  0  0  0  0  0  0  0  0  0  0
  -23.5709   29.2332  -17.5017 C   0  0  0  0  0  0  0  0  0  0  0  0
  -26.6066   30.9597  -19.5569 S   0  0  0  0  0  0  0  0  0  0  0  0
  -24.8212   31.7134  -17.6360 C   0  0  0  0  0  0  0  0  0  0  0  0
  -23.1370   30.2814  -16.6837 C   0  0  0  0  0  0  0  0  0  0  0  0
  -27.4558   31.9783  -18.9802 O   0  0  0  0  0  0  0  0  0  0  0  0
  -27.1400   29.7016  -20.0187 O   0  0  0  0  0  0  0  0  0  0  0  0
  -25.8830   31.7113  -20.8716 N   0  0  0  0  0  0  0  0  0  0  0  0
  -23.7561   31.5407  -16.7300 C   0  0  0  0  0  0  0  0  0  0  0  0
  -23.2757   32.6878  -15.8554 C   0  0  2  0  0  0  0  0  0  0  0  0
  -23.5965   32.4845  -14.4979 O   0  0  0  0  0  0  0  0  0  0  0  0
  -23.8872   33.9344  -16.2027 N   0  0  0  0  0  0  0  0  0  0  0  0
  -21.8098   32.9905  -15.9763 C   0  0  0  0  0  0  0  0  0  0  0  0
  -22.9743   34.9114  -16.5284 C   0  0  0  0  0  0  0  0  0  0  0  0
  -21.6422   34.3158  -16.3826 C   0  0  0  0  0  0  0  0  0  0  0  0
  -20.7016   32.1917  -15.7438 C   0  0  0  0  0  0  0  0  0  0  0  0
  -23.2166   36.0507  -16.8674 O   0  0  0  0  0  0  0  0  0  0  0  0
  -20.4018   34.8892  -16.5837 C   0  0  0  0  0  0  0  0  0  0  0  0
  -19.4324   32.7488  -15.9404 C   0  0  0  0  0  0  0  0  0  0  0  0
  -19.2836   34.0851  -16.3584 C   0  0  0  0  0  0  0  0  0  0  0  0
  -23.0686   28.2697  -17.4350 H   0  0  0  0  0  0  0  0  0  0  0  0
  -25.3181   32.6827  -17.6974 H   0  0  0  0  0  0  0  0  0  0  0  0
  -22.3045   30.1029  -16.0034 H   0  0  0  0  0  0  0  0  0  0  0  0
  -26.3771   32.5769  -21.0908 H   0  0  0  0  0  0  0  0  0  0  0  0
  -25.8250   31.0583  -21.6548 H   0  0  0  0  0  0  0  0  0  0  0  0
  -24.4514   32.0245  -14.5254 H   0  0  0  0  0  0  0  0  0  0  0  0
  -24.8833   34.0849  -16.2669 H   0  0  0  0  0  0  0  0  0  0  0  0
  -20.8105   31.1622  -15.4160 H   0  0  0  0  0  0  0  0  0  0  0  0
  -20.3069   35.9221  -16.9023 H   0  0  0  0  0  0  0  0  0  0  0  0
  -18.5455   32.1420  -15.7663 H   0  0  0  0  0  0  0  0  0  0  0  0
  -18.2859   34.4947  -16.5040 H   0  0  0  0  0  0  0  0  0  0  0  0
  1  2  1  0  0  0  0
  2  3  2  0  0  0  0
  2  4  1  0  0  0  0
  3  5  1  0  0  0  0
  3  6  1  0  0  0  0
  4  7  2  0  0  0  0
  4 23  1  0  0  0  0
  5  8  2  0  0  0  0
  5  9  2  0  0  0  0
  5 10  1  0  0  0  0
  6 11  2  0  0  0  0
  6 24  1  0  0  0  0
  7 11  1  0  0  0  0
  7 25  1  0  0  0  0
 10 26  1  0  0  0  0
 10 27  1  0  0  0  0
 11 12  1  0  0  0  0
 12 13  1  0  0  0  0
 12 14  1  0  0  0  0
 12 15  1  0  0  0  0
 13 28  1  0  0  0  0
 14 16  1  0  0  0  0
 14 29  1  0  0  0  0
 15 17  2  0  0  0  0
 15 18  1  0  0  0  0
 16 19  2  0  0  0  0
 16 17  1  0  0  0  0
 17 20  1  0  0  0  0
 18 21  2  0  0  0  0
 18 30  1  0  0  0  0
 20 22  2  0  0  0  0
 20 31  1  0  0  0  0
 21 22  1  0  0  0  0
 21 32  1  0  0  0  0
 22 33  1  0  0  0  0
M  END
>  <Column 1>
NS(=O)(=O)c1cc([C@]2(O)NC(=O)c3ccccc32)ccc1Cl ZINC000000020253

>  <Total Molweight>
338.77

>  <cLogP>
1.951

>  <cLogS>
-3.465

>  <H-Acceptors>
6

>  <H-Donors>
3

>  <Total Surface Area>
218.01

>  <MMFF94 Energy>
-105.23

> <Gold.Version>
5.8.1

> <Gold.Id.Protein>
ID|2FQT|mol2

> <Gold.PLP.Fitness>
62.5981

> <Gold.PLP.PLP>
-39.8680

> <Gold.PLP.part.hbond>
-4.6616

> <Gold.PLP.part.metal>
-2.0000

> <Gold.PLP.part.buried>
6.4581

> <Gold.PLP.part.nonpolar>
-43.3554

> <Gold.PLP.part.repulsive>
0.2899

> <Gold.PLP.ligand.clash>
0.0000

> <Gold.PLP.ligand.torsion>
1.1785

> <Gold.PLP.Chemscore.Hbond>
3.7363

> <Gold.PLP.Chemscore.CHOScore>
0.0000

> <Gold.PLP.Chemscore.Metal>
1.9863

> <Gold.Chemscore.Hbonds>
donor molecule, donor type, donor heavy atom, donor atom, acceptor molecule, acceptor atom, score
      L1  H    10    26       P1   954  1.00
      L1  H    10    27       P1  1290  0.90
      P1  H   966  3428       L1     9  1.00
      P1  H  1244  3476       L1    10  0.23
      P1  H  1223  2649       L1    19  0.61
      P1  M  1222  1222       L1     8  0.99
      P1  M  1222  1222       L1     9  1.00

> <Gold.PLP.Chemscore.Internal.Correction>
1.9603

> <Gold.Protein.RotatedTorsions>
[ 3412  950  949  948 ] final  139.34 input   60.00 | X-H torsion
[ 3476 1244 1243 1240 ] final -120.93 input   60.00 | X-H torsion
[ 2649 1223 1224 1225 ] final  -93.47 input   60.00 | X-H torsion
[ 4380 1912 1911 1909 ] final  110.54 input   60.00 | X-H torsion
[ 3084  621  620  617 ] final  -51.56 input   60.00 | X-H torsion

> <Gold.Protein.ActiveResidues>
 HIS54   GLU57   HIS58   ALA61   PHE62   ILE64   ARG65   ASP75   ILE76   ILE77  
 ASP78   ILE79   SER80   PRO81   ILE118  PRO119  ALA120  ALA121  ASN122  LYS124 
 GLN125  CYS126  GLY127  CO701   VAL4    GLU5    SER6    PHE7    GLU8    LEU9   
 HIS11   ARG20   HIS21   CYS22   GLY23   VAL24   HIS25   LYS35   ARG39   MET82  
 GLY83   CYS84   TYR89  

> <Gold.Protein.RotatedAtoms>
  -21.4591   37.3274  -16.6371 H   0  0  0  0  0  0  0  0  0  0  0  0  # atno 2649 bound_to 1223
  -20.2451   38.0122  -17.5339 H   0  0  0  0  0  0  0  0  0  0  0  0  # atno 2650 bound_to 1223
  -19.7613   28.2486  -13.6544 H   0  0  0  0  0  0  0  0  0  0  0  0  # atno 3084 bound_to 621 
  -27.5948   38.1198  -29.3466 H   0  0  0  0  0  0  0  0  0  0  0  0  # atno 3412 bound_to 950 
  -28.6397   39.3259  -28.8987 H   0  0  0  0  0  0  0  0  0  0  0  0  # atno 3413 bound_to 950 
  -28.5960   37.9071  -28.0429 H   0  0  0  0  0  0  0  0  0  0  0  0  # atno 3414 bound_to 950 
  -24.3046   32.2280  -19.9049 H   0  0  0  0  0  0  0  0  0  0  0  0  # atno 3476 bound_to 1244
  -20.0082   31.9469  -19.1925 H   0  0  0  0  0  0  0  0  0  0  0  0  # atno 4380 bound_to 1912
  -22.9708   31.4108  -20.3532 LP  0  0  0  0  0  0  0  0  0  0  0  0  # atno 4866 bound_to 1244
  -23.7132   32.4102  -21.4099 LP  0  0  0  0  0  0  0  0  0  0  0  0  # atno 4867 bound_to 1244
  -20.9150   38.8381  -16.2785 LP  0  0  0  0  0  0  0  0  0  0  0  0  # atno 4874 bound_to 1223
  -21.2492   30.8986  -19.2868 LP  0  0  0  0  0  0  0  0  0  0  0  0  # atno 4875 bound_to 1912
  -20.1811   31.0166  -20.5163 LP  0  0  0  0  0  0  0  0  0  0  0  0  # atno 4876 bound_to 1912
  -18.4396   27.3220  -13.8611 LP  0  0  0  0  0  0  0  0  0  0  0  0  # atno 4881 bound_to 621 
  -18.3746   28.6386  -12.8973 LP  0  0  0  0  0  0  0  0  0  0  0  0  # atno 4882 bound_to 621 

$$$$
Compound 111|Decoys_protonated|sdf|111|dock2
  -GOLD-   6122416193D 1   1.00000     0.00000

 31 33  0  0  0  0  0  0  0  0  1 V2000
  -18.4165   33.7326  -14.9734 O   0  0  0  0  0  0  0  0  0  0  0  0
  -19.7257   33.6345  -15.3848 C   0  0  0  0  0  0  0  0  0  0  0  0
  -17.8691   35.0338  -15.1798 C   0  0  0  0  0  0  0  0  0  0  0  0
  -20.3758   34.6793  -15.9312 N   0  0  0  0  0  0  0  0  0  0  0  0
  -20.4064   32.4544  -15.2453 C   0  0  0  0  0  0  0  0  0  0  0  0
  -18.2779   35.8893  -14.0053 C   0  0  0  0  0  0  0  0  0  0  0  0
  -21.6557   34.5129  -16.3114 C   0  0  0  0  0  0  0  0  0  0  0  0
  -20.1086   31.2169  -14.7575 N   0  0  0  0  0  0  0  0  0  0  0  0
  -21.7167   32.3680  -15.6608 C   0  0  0  0  0  0  0  0  0  0  0  0
  -19.0381   35.3460  -12.9597 C   0  0  0  0  0  0  0  0  0  0  0  0
  -17.8683   37.2277  -13.9234 C   0  0  0  0  0  0  0  0  0  0  0  0
  -22.3821   33.3986  -16.2079 N   0  0  0  0  0  0  0  0  0  0  0  0
  -22.2717   35.6021  -16.8600 N   0  0  0  0  0  0  0  0  0  0  0  0
  -21.2303   30.4435  -14.8943 C   0  0  0  0  0  0  0  0  0  0  0  0
  -22.2175   31.1127  -15.4370 N   0  0  0  0  0  0  0  0  0  0  0  0
  -19.3993   36.1328  -11.8647 C   0  0  0  0  0  0  0  0  0  0  0  0
  -18.2306   38.0127  -12.8274 C   0  0  0  0  0  0  0  0  0  0  0  0
  -21.2384   29.1703  -14.4985 N   0  0  0  0  0  0  0  0  0  0  0  0
  -18.9975   37.4658  -11.8001 C   0  0  0  0  0  0  0  0  0  0  0  0
  -18.2554   35.4795  -16.1061 H   0  0  0  0  0  0  0  0  0  0  0  0
  -16.7733   34.9938  -15.2366 H   0  0  0  0  0  0  0  0  0  0  0  0
  -19.2260   30.9241  -14.3678 H   0  0  0  0  0  0  0  0  0  0  0  0
  -19.3513   34.3047  -12.9932 H   0  0  0  0  0  0  0  0  0  0  0  0
  -17.2623   37.6650  -14.7141 H   0  0  0  0  0  0  0  0  0  0  0  0
  -21.7343   36.4480  -16.9431 H   0  0  0  0  0  0  0  0  0  0  0  0
  -23.2272   35.5153  -17.1555 H   0  0  0  0  0  0  0  0  0  0  0  0
  -19.9923   35.7046  -11.0606 H   0  0  0  0  0  0  0  0  0  0  0  0
  -17.9123   39.0505  -12.7742 H   0  0  0  0  0  0  0  0  0  0  0  0
  -20.3907   28.7854  -14.0917 H   0  0  0  0  0  0  0  0  0  0  0  0
  -22.0231   28.5355  -14.5647 H   0  0  0  0  0  0  0  0  0  0  0  0
  -19.2790   38.0775  -10.9470 H   0  0  0  0  0  0  0  0  0  0  0  0
  1  2  1  0  0  0  0
  1  3  1  0  0  0  0
  2  4  2  0  0  0  0
  2  5  1  0  0  0  0
  3  6  1  0  0  0  0
  3 20  1  0  0  0  0
  3 21  1  0  0  0  0
  4  7  1  0  0  0  0
  5  8  1  0  0  0  0
  5  9  2  0  0  0  0
  6 10  2  0  0  0  0
  6 11  1  0  0  0  0
  7 12  2  0  0  0  0
  7 13  1  0  0  0  0
  8 14  1  0  0  0  0
  8 22  1  0  0  0  0
  9 15  1  0  0  0  0
  9 12  1  0  0  0  0
 10 16  1  0  0  0  0
 10 23  1  0  0  0  0
 11 17  2  0  0  0  0
 11 24  1  0  0  0  0
 13 25  1  0  0  0  0
 13 26  1  0  0  0  0
 14 18  1  0  0  0  0
 14 15  2  0  0  0  0
 16 19  2  0  0  0  0
 16 27  1  0  0  0  0
 17 19  1  0  0  0  0
 17 28  1  0  0  0  0
 18 29  1  0  0  0  0
 18 30  1  0  0  0  0
 19 31  1  0  0  0  0
M  END
>  <Column 1>
Nc1nc(OCc2ccccc2)c2[nH]c(N)nc2n1 ZINC000000021194

>  <Total Molweight>
256.268

>  <cLogP>
1.0628

>  <cLogS>
-4.228

>  <H-Acceptors>
7

>  <H-Donors>
3

>  <Total Surface Area>
194.27

>  <MMFF94 Energy>
-150.36

> <Gold.Version>
5.8.1

> <Gold.Id.Protein>
ID|2FQT|mol2

> <Gold.PLP.Fitness>
55.3978

> <Gold.PLP.PLP>
-43.6944

> <Gold.PLP.part.hbond>
-6.9529

> <Gold.PLP.part.metal>
0.0000

> <Gold.PLP.part.buried>
-7.4463

> <Gold.PLP.part.nonpolar>
-31.0449

> <Gold.PLP.part.repulsive>
0.5616

> <Gold.PLP.ligand.clash>
0.0000

> <Gold.PLP.ligand.torsion>
0.1255

> <Gold.PLP.Chemscore.Hbond>
3.9840

> <Gold.PLP.Chemscore.CHOScore>
0.0000

> <Gold.PLP.Chemscore.Metal>
0.0000

> <Gold.Chemscore.Hbonds>
donor molecule, donor type, donor heavy atom, donor atom, acceptor molecule, acceptor atom, score
      L1  H     8    22       P1   606  0.99
      L1  H    13    25       P1  1223  1.00
      L1  H    18    29       P1   621  1.00
      L1  H    18    30       P1   427  0.99

> <Gold.PLP.Chemscore.Internal.Correction>
0.0023

> <Gold.Protein.RotatedTorsions>
[ 3412  950  949  948 ] final  133.78 input   60.00 | X-H torsion
[ 3476 1244 1243 1240 ] final -110.26 input   60.00 | X-H torsion
[ 2649 1223 1224 1225 ] final   37.67 input   60.00 | X-H torsion
[ 4380 1912 1911 1909 ] final  -85.03 input   60.00 | X-H torsion
[ 3084  621  620  617 ] final   91.01 input   60.00 | X-H torsion

> <Gold.Protein.ActiveResidues>
 HIS54   GLU57   HIS58   ALA61   PHE62   ILE64   ARG65   ASP75   ILE76   ILE77  
 ASP78   ILE79   SER80   PRO81   ILE118  PRO119  ALA120  ALA121  ASN122  LYS124 
 GLN125  CYS126  GLY127  CO701   VAL4    GLU5    SER6    PHE7    GLU8    LEU9   
 HIS11   ARG20   HIS21   CYS22   GLY23   VAL24   HIS25   LYS35   ARG39   MET82  
 GLY83   CYS84   TYR89  

> <Gold.Protein.RotatedAtoms>
  -20.1959   38.1828  -17.4790 H   0  0  0  0  0  0  0  0  0  0  0  0  # atno 2649 bound_to 1223
  -21.0469   38.7565  -16.1776 H   0  0  0  0  0  0  0  0  0  0  0  0  # atno 2650 bound_to 1223
  -18.1236   28.3857  -12.9879 H   0  0  0  0  0  0  0  0  0  0  0  0  # atno 3084 bound_to 621 
  -27.5956   38.0420  -29.2959 H   0  0  0  0  0  0  0  0  0  0  0  0  # atno 3412 bound_to 950 
  -28.5820   39.3337  -28.9710 H   0  0  0  0  0  0  0  0  0  0  0  0  # atno 3413 bound_to 950 
  -28.6529   37.9772  -28.0212 H   0  0  0  0  0  0  0  0  0  0  0  0  # atno 3414 bound_to 950 
  -24.3723   32.3304  -20.0283 H   0  0  0  0  0  0  0  0  0  0  0  0  # atno 3476 bound_to 1244
  -20.7652   30.6710  -20.3063 H   0  0  0  0  0  0  0  0  0  0  0  0  # atno 4380 bound_to 1912
  -23.0466   31.4017  -20.1954 LP  0  0  0  0  0  0  0  0  0  0  0  0  # atno 4866 bound_to 1244
  -23.5692   32.3161  -21.4434 LP  0  0  0  0  0  0  0  0  0  0  0  0  # atno 4867 bound_to 1244
  -21.3696   37.2620  -16.7852 LP  0  0  0  0  0  0  0  0  0  0  0  0  # atno 4874 bound_to 1223
  -19.7096   31.8112  -19.8227 LP  0  0  0  0  0  0  0  0  0  0  0  0  # atno 4875 bound_to 1912
  -20.9583   31.3890  -18.8588 LP  0  0  0  0  0  0  0  0  0  0  0  0  # atno 4876 bound_to 1912
  -19.6832   28.5291  -13.4298 LP  0  0  0  0  0  0  0  0  0  0  0  0  # atno 4881 bound_to 621 
  -18.7804   27.2935  -13.9998 LP  0  0  0  0  0  0  0  0  0  0  0  0  # atno 4882 bound_to 621 

$$$$
Compound 112|Decoys_protonated|sdf|112|dock5
  -GOLD-   6122416193D 1   1.00000     0.00000

 29 30  0  0  0  0  0  0  0  0  1 V2000
  -26.6045   30.0177  -18.9095 O   0  0  0  0  0  0  0  0  0  0  0  0
  -26.2937   28.8681  -18.1980 N   0  0  0  0  0  0  0  0  0  0  0  0
  -25.7400   31.0256  -18.5780 C   0  0  0  0  0  0  0  0  0  0  0  0
  -25.2420   29.1999  -17.4475 C   0  0  0  0  0  0  0  0  0  0  0  0
  -25.9561   32.2019  -19.2008 N   0  0  0  0  0  0  0  0  0  0  0  0
  -24.8446   30.5362  -17.6507 C   0  0  0  0  0  0  0  0  0  0  0  0
  -27.0137   32.4187  -20.1543 C   0  0  0  0  0  0  0  0  0  0  0  0
  -23.7536   31.2108  -17.0355 C   0  0  0  0  0  0  0  0  0  0  0  0
  -22.7778   30.5792  -16.3586 C   0  0  0  0  0  0  0  0  0  0  0  0
  -23.7750   32.7185  -17.2003 C   0  0  0  0  0  0  0  0  0  0  0  0
  -21.6447   31.3418  -15.7339 C   0  0  0  0  0  0  0  0  0  0  0  0
  -22.9087   33.4206  -16.2289 N   0  0  0  0  0  0  0  0  0  0  0  0
  -21.5724   32.8070  -16.2007 C   0  0  0  0  0  0  0  0  0  0  0  0
  -22.8251   34.8424  -16.5554 C   0  0  0  0  0  0  0  0  0  0  0  0
  -24.8124   28.4546  -16.7935 H   0  0  0  0  0  0  0  0  0  0  0  0
  -25.3093   32.9685  -19.0439 H   0  0  0  0  0  0  0  0  0  0  0  0
  -27.9978   32.3360  -19.6847 H   0  0  0  0  0  0  0  0  0  0  0  0
  -26.9457   31.7193  -20.9933 H   0  0  0  0  0  0  0  0  0  0  0  0
  -26.9324   33.4307  -20.5645 H   0  0  0  0  0  0  0  0  0  0  0  0
  -22.7932   29.5004  -16.2309 H   0  0  0  0  0  0  0  0  0  0  0  0
  -24.7983   33.0930  -17.0695 H   0  0  0  0  0  0  0  0  0  0  0  0
  -23.4695   32.9554  -18.2293 H   0  0  0  0  0  0  0  0  0  0  0  0
  -20.6976   30.8447  -15.9725 H   0  0  0  0  0  0  0  0  0  0  0  0
  -21.7669   31.3058  -14.6445 H   0  0  0  0  0  0  0  0  0  0  0  0
  -20.9177   33.3519  -15.5094 H   0  0  0  0  0  0  0  0  0  0  0  0
  -21.1041   32.8555  -17.1935 H   0  0  0  0  0  0  0  0  0  0  0  0
  -22.2297   35.3738  -15.8048 H   0  0  0  0  0  0  0  0  0  0  0  0
  -22.3742   35.0173  -17.5390 H   0  0  0  0  0  0  0  0  0  0  0  0
  -23.8214   35.2982  -16.5462 H   0  0  0  0  0  0  0  0  0  0  0  0
  1  2  1  0  0  0  0
  1  3  1  0  0  0  0
  2  4  2  0  0  0  0
  3  5  1  0  0  0  0
  3  6  2  0  0  0  0
  4  6  1  0  0  0  0
  4 15  1  0  0  0  0
  5  7  1  0  0  0  0
  5 16  1  0  0  0  0
  6  8  1  0  0  0  0
  7 17  1  0  0  0  0
  7 18  1  0  0  0  0
  7 19  1  0  0  0  0
  8  9  2  0  0  0  0
  8 10  1  0  0  0  0
  9 11  1  0  0  0  0
  9 20  1  0  0  0  0
 10 12  1  0  0  0  0
 10 21  1  0  0  0  0
 10 22  1  0  0  0  0
 11 13  1  0  0  0  0
 11 23  1  0  0  0  0
 11 24  1  0  0  0  0
 12 14  1  0  0  0  0
 12 13  1  0  0  0  0
 13 25  1  0  0  0  0
 13 26  1  0  0  0  0
 14 27  1  0  0  0  0
 14 28  1  0  0  0  0
 14 29  1  0  0  0  0
M  END
>  <Column 1>
CNc1oncc1C1=CCCN(C)C1 ZINC000000021868

>  <Total Molweight>
193.249

>  <cLogP>
0.3859

>  <cLogS>
-1.174

>  <H-Acceptors>
4

>  <H-Donors>
1

>  <Total Surface Area>
160.48

>  <MMFF94 Energy>
35.22

> <Gold.Version>
5.8.1

> <Gold.Id.Protein>
ID|2FQT|mol2

> <Gold.PLP.Fitness>
42.6405

> <Gold.PLP.PLP>
-29.6537

> <Gold.PLP.part.hbond>
-1.0000

> <Gold.PLP.part.metal>
-1.9630

> <Gold.PLP.part.buried>
5.0511

> <Gold.PLP.part.nonpolar>
-32.5953

> <Gold.PLP.part.repulsive>
0.2748

> <Gold.PLP.ligand.clash>
0.0000

> <Gold.PLP.ligand.torsion>
0.0888

> <Gold.PLP.Chemscore.Hbond>
0.0000

> <Gold.PLP.Chemscore.CHOScore>
0.5081

> <Gold.PLP.Chemscore.Metal>
1.9399

> <Gold.Chemscore.Hbonds>
donor molecule, donor type, donor heavy atom, donor atom, acceptor molecule, acceptor atom, score
      L1  C     4    15       P1   426  0.20
      L1  C     4    15       P1   427  0.31
      P1  M  1222  1222       L1     1  1.00
      P1  M  1222  1222       L1     2  0.94

> <Gold.PLP.Chemscore.Internal.Correction>
0.0005

> <Gold.Protein.RotatedTorsions>
[ 3412  950  949  948 ] final -179.73 input   60.00 | X-H torsion
[ 3476 1244 1243 1240 ] final  116.57 input   60.00 | X-H torsion
[ 2649 1223 1224 1225 ] final  117.99 input   60.00 | X-H torsion
[ 4380 1912 1911 1909 ] final    8.58 input   60.00 | X-H torsion
[ 3084  621  620  617 ] final   -7.26 input   60.00 | X-H torsion

> <Gold.Protein.ActiveResidues>
 HIS54   GLU57   HIS58   ALA61   PHE62   ILE64   ARG65   ASP75   ILE76   ILE77  
 ASP78   ILE79   SER80   PRO81   ILE118  PRO119  ALA120  ALA121  ASN122  LYS124 
 GLN125  CYS126  GLY127  CO701   VAL4    GLU5    SER6    PHE7    GLU8    LEU9   
 HIS11   ARG20   HIS21   CYS22   GLY23   VAL24   HIS25   LYS35   ARG39   MET82  
 GLY83   CYS84   TYR89  

> <Gold.Protein.RotatedAtoms>
  -20.5725   38.9412  -16.5810 H   0  0  0  0  0  0  0  0  0  0  0  0  # atno 2649 bound_to 1223
  -21.5718   37.6472  -16.3091 H   0  0  0  0  0  0  0  0  0  0  0  0  # atno 2650 bound_to 1223
  -19.4793   28.7248  -13.2161 H   0  0  0  0  0  0  0  0  0  0  0  0  # atno 3084 bound_to 621 
  -27.7781   38.7373  -29.5275 H   0  0  0  0  0  0  0  0  0  0  0  0  # atno 3412 bound_to 950 
  -28.9297   39.0316  -28.3723 H   0  0  0  0  0  0  0  0  0  0  0  0  # atno 3413 bound_to 950 
  -28.1228   37.5839  -28.3883 H   0  0  0  0  0  0  0  0  0  0  0  0  # atno 3414 bound_to 950 
  -22.9600   31.4220  -20.3920 H   0  0  0  0  0  0  0  0  0  0  0  0  # atno 3476 bound_to 1244
  -21.1738   31.0850  -19.0714 H   0  0  0  0  0  0  0  0  0  0  0  0  # atno 4380 bound_to 1912
  -23.7471   32.4305  -21.3976 LP  0  0  0  0  0  0  0  0  0  0  0  0  # atno 4866 bound_to 1244
  -24.2911   32.2022  -19.8750 LP  0  0  0  0  0  0  0  0  0  0  0  0  # atno 4867 bound_to 1244
  -20.4814   37.6077  -17.5404 LP  0  0  0  0  0  0  0  0  0  0  0  0  # atno 4874 bound_to 1223
  -20.4179   30.8414  -20.4917 LP  0  0  0  0  0  0  0  0  0  0  0  0  # atno 4875 bound_to 1912
  -19.8385   31.9417  -19.4333 LP  0  0  0  0  0  0  0  0  0  0  0  0  # atno 4876 bound_to 1912
  -19.1207   27.3786  -14.0570 LP  0  0  0  0  0  0  0  0  0  0  0  0  # atno 4881 bound_to 621 
  -17.9775   28.1024  -13.1427 LP  0  0  0  0  0  0  0  0  0  0  0  0  # atno 4882 bound_to 621 

$$$$
Compound 113|Decoys_protonated|sdf|113|dock8
  -GOLD-   6122416193D 1   1.00000     0.00000

 25 26  0  0  0  0  0  0  0  0  1 V2000
  -22.6272   34.6819  -16.7232 S   0  0  0  0  0  0  0  0  0  0  0  0
  -22.2608   32.9842  -16.6678 C   0  0  0  0  0  0  0  0  0  0  0  0
  -21.0763   35.0160  -17.3549 C   0  0  0  0  0  0  0  0  0  0  0  0
  -21.0475   32.7031  -17.1021 N   0  0  0  0  0  0  0  0  0  0  0  0
  -23.1364   32.0331  -16.2351 N   0  0  0  0  0  0  0  0  0  0  0  0
  -20.3758   33.8426  -17.4909 C   0  0  0  0  0  0  0  0  0  0  0  0
  -22.8647   30.5950  -16.2997 C   0  0  0  0  0  0  0  0  0  0  0  0
  -24.5723   32.3411  -16.2170 C   0  0  0  0  0  0  0  0  0  0  0  0
  -23.5540   29.9928  -17.5500 C   0  0  0  0  0  0  0  0  0  0  0  0
  -25.2489   31.7323  -17.4685 C   0  0  0  0  0  0  0  0  0  0  0  0
  -25.0106   30.2709  -17.5870 N   0  0  0  0  0  0  0  0  0  0  0  0
  -25.6039   29.7528  -18.8175 C   0  0  0  0  0  0  0  0  0  0  0  0
  -20.7615   36.0212  -17.5924 H   0  0  0  0  0  0  0  0  0  0  0  0
  -19.3657   33.7571  -17.8716 H   0  0  0  0  0  0  0  0  0  0  0  0
  -21.7983   30.3501  -16.3122 H   0  0  0  0  0  0  0  0  0  0  0  0
  -23.2723   30.1182  -15.3987 H   0  0  0  0  0  0  0  0  0  0  0  0
  -25.0167   31.9025  -15.3139 H   0  0  0  0  0  0  0  0  0  0  0  0
  -24.7772   33.4167  -16.1646 H   0  0  0  0  0  0  0  0  0  0  0  0
  -23.3933   28.9081  -17.5415 H   0  0  0  0  0  0  0  0  0  0  0  0
  -23.0693   30.3926  -18.4508 H   0  0  0  0  0  0  0  0  0  0  0  0
  -26.3274   31.9186  -17.4015 H   0  0  0  0  0  0  0  0  0  0  0  0
  -24.8776   32.2498  -18.3631 H   0  0  0  0  0  0  0  0  0  0  0  0
  -25.4590   28.6689  -18.8858 H   0  0  0  0  0  0  0  0  0  0  0  0
  -26.6854   29.9272  -18.8247 H   0  0  0  0  0  0  0  0  0  0  0  0
  -25.1741   30.2148  -19.7136 H   0  0  0  0  0  0  0  0  0  0  0  0
  1  2  1  0  0  0  0
  1  3  1  0  0  0  0
  2  4  2  0  0  0  0
  2  5  1  0  0  0  0
  3  6  2  0  0  0  0
  3 13  1  0  0  0  0
  4  6  1  0  0  0  0
  5  7  1  0  0  0  0
  5  8  1  0  0  0  0
  6 14  1  0  0  0  0
  7  9  1  0  0  0  0
  7 15  1  0  0  0  0
  7 16  1  0  0  0  0
  8 10  1  0  0  0  0
  8 17  1  0  0  0  0
  8 18  1  0  0  0  0
  9 11  1  0  0  0  0
  9 19  1  0  0  0  0
  9 20  1  0  0  0  0
 10 11  1  0  0  0  0
 10 21  1  0  0  0  0
 10 22  1  0  0  0  0
 11 12  1  0  0  0  0
 12 23  1  0  0  0  0
 12 24  1  0  0  0  0
 12 25  1  0  0  0  0
M  END
>  <Column 1>
CN1CCN(c2nccs2)CC1 ZINC000000022036

>  <Total Molweight>
183.278

>  <cLogP>
1.0633

>  <cLogS>
-0.954

>  <H-Acceptors>
3

>  <H-Donors>
0

>  <Total Surface Area>
142.36

>  <MMFF94 Energy>
51.449

> <Gold.Version>
5.8.1

> <Gold.Id.Protein>
ID|2FQT|mol2

> <Gold.PLP.Fitness>
41.9672

> <Gold.PLP.PLP>
-36.0180

> <Gold.PLP.part.hbond>
-1.0000

> <Gold.PLP.part.metal>
0.0000

> <Gold.PLP.part.buried>
-2.4766

> <Gold.PLP.part.nonpolar>
-33.3094

> <Gold.PLP.part.repulsive>
0.1381

> <Gold.PLP.ligand.clash>
0.0000

> <Gold.PLP.ligand.torsion>
0.1011

> <Gold.PLP.Chemscore.Hbond>
1.0000

> <Gold.PLP.Chemscore.CHOScore>
1.0000

> <Gold.PLP.Chemscore.Metal>
0.0000

> <Gold.Chemscore.Hbonds>
donor molecule, donor type, donor heavy atom, donor atom, acceptor molecule, acceptor atom, score
      P1  H  1912  4380       L1     4  1.00
      L1  C     3    13       P1  1223  1.00

> <Gold.PLP.Chemscore.Internal.Correction>
0.1514

> <Gold.Protein.RotatedTorsions>
[ 3412  950  949  948 ] final   42.05 input   60.00 | X-H torsion
[ 3476 1244 1243 1240 ] final  129.99 input   60.00 | X-H torsion
[ 2649 1223 1224 1225 ] final   82.06 input   60.00 | X-H torsion
[ 4380 1912 1911 1909 ] final   48.73 input   60.00 | X-H torsion
[ 3084  621  620  617 ] final -128.64 input   60.00 | X-H torsion

> <Gold.Protein.ActiveResidues>
 HIS54   GLU57   HIS58   ALA61   PHE62   ILE64   ARG65   ASP75   ILE76   ILE77  
 ASP78   ILE79   SER80   PRO81   ILE118  PRO119  ALA120  ALA121  ASN122  LYS124 
 GLN125  CYS126  GLY127  CO701   VAL4    GLU5    SER6    PHE7    GLU8    LEU9   
 HIS11   ARG20   HIS21   CYS22   GLY23   VAL24   HIS25   LYS35   ARG39   MET82  
 GLY83   CYS84   TYR89  

> <Gold.Protein.RotatedAtoms>
  -20.2569   38.7577  -17.0449 H   0  0  0  0  0  0  0  0  0  0  0  0  # atno 2649 bound_to 1223
  -21.4727   38.1809  -16.0773 H   0  0  0  0  0  0  0  0  0  0  0  0  # atno 2650 bound_to 1223
  -19.0986   27.3736  -14.0499 H   0  0  0  0  0  0  0  0  0  0  0  0  # atno 3084 bound_to 621 
  -28.3383   37.6805  -28.1985 H   0  0  0  0  0  0  0  0  0  0  0  0  # atno 3412 bound_to 950 
  -27.6574   38.4617  -29.4921 H   0  0  0  0  0  0  0  0  0  0  0  0  # atno 3413 bound_to 950 
  -28.8347   39.2107  -28.5975 H   0  0  0  0  0  0  0  0  0  0  0  0  # atno 3414 bound_to 950 
  -23.0516   31.4079  -20.1937 H   0  0  0  0  0  0  0  0  0  0  0  0  # atno 3476 bound_to 1244
  -20.7956   31.5395  -18.8197 H   0  0  0  0  0  0  0  0  0  0  0  0  # atno 4380 bound_to 1912
  -23.5659   32.3137  -21.4439 LP  0  0  0  0  0  0  0  0  0  0  0  0  # atno 4866 bound_to 1244
  -24.3800   32.3331  -20.0284 LP  0  0  0  0  0  0  0  0  0  0  0  0  # atno 4867 bound_to 1244
  -20.8899   37.2627  -17.3118 LP  0  0  0  0  0  0  0  0  0  0  0  0  # atno 4874 bound_to 1223
  -20.9317   30.6282  -20.1609 LP  0  0  0  0  0  0  0  0  0  0  0  0  # atno 4875 bound_to 1912
  -19.7057   31.6973  -20.0177 LP  0  0  0  0  0  0  0  0  0  0  0  0  # atno 4876 bound_to 1912
  -17.9828   28.1213  -13.1311 LP  0  0  0  0  0  0  0  0  0  0  0  0  # atno 4881 bound_to 621 
  -19.4988   28.7204  -13.2289 LP  0  0  0  0  0  0  0  0  0  0  0  0  # atno 4882 bound_to 621 

$$$$
Compound 114|Decoys_protonated|sdf|114|dock3
  -GOLD-   6122416193D 1   1.00000     0.00000

 38 40  0  0  0  0  0  0  0  0  1 V2000
  -22.8667   31.5907  -14.0186 O   0  0  0  0  0  0  0  0  0  0  0  0
  -22.5177   31.7603  -15.1902 C   0  0  0  0  0  0  0  0  0  0  0  0
  -21.3195   32.4018  -15.5050 N   0  0  0  0  0  0  0  0  0  0  0  0
  -23.4245   31.2507  -16.2674 C   0  0  0  0  0  0  0  0  0  0  0  0
  -20.2153   32.7003  -14.5831 C   0  0  0  0  0  0  0  0  0  0  0  0
  -21.1171   32.8102  -16.9013 C   0  0  0  0  0  0  0  0  0  0  0  0
  -23.1433   30.0419  -16.8229 N   0  0  0  0  0  0  0  0  0  0  0  0
  -24.5568   31.9928  -16.5913 C   0  0  0  0  0  0  0  0  0  0  0  0
  -19.7566   34.1585  -14.7184 C   0  0  0  0  0  0  0  0  0  0  0  0
  -19.7908   33.5472  -17.1318 C   0  0  0  0  0  0  0  0  0  0  0  0
  -24.0149   29.5788  -17.7448 C   0  0  0  0  0  0  0  0  0  0  0  0
  -25.4304   31.4882  -17.5504 C   0  0  0  0  0  0  0  0  0  0  0  0
  -19.5731   34.5826  -16.1126 N   0  0  0  0  0  0  0  0  0  0  0  0
  -25.1559   30.2592  -18.1402 C   0  0  0  0  0  0  0  0  0  0  0  0
  -19.1960   35.9068  -16.3374 C   0  0  0  0  0  0  0  0  0  0  0  0
  -19.2424   36.4049  -17.4656 O   0  0  0  0  0  0  0  0  0  0  0  0
  -18.7178   36.7726  -15.2132 C   0  0  0  0  0  0  0  0  0  0  0  0
  -19.6494   37.3565  -14.4130 N   0  0  0  0  0  0  0  0  0  0  0  0
  -17.3483   36.8725  -14.9857 C   0  0  0  0  0  0  0  0  0  0  0  0
  -19.1880   38.0780  -13.3688 C   0  0  0  0  0  0  0  0  0  0  0  0
  -16.9078   37.6294  -13.9037 C   0  0  0  0  0  0  0  0  0  0  0  0
  -17.8430   38.2453  -13.0793 C   0  0  0  0  0  0  0  0  0  0  0  0
  -19.3943   32.0302  -14.8699 H   0  0  0  0  0  0  0  0  0  0  0  0
  -20.4367   32.4555  -13.5457 H   0  0  0  0  0  0  0  0  0  0  0  0
  -21.1716   31.9193  -17.5374 H   0  0  0  0  0  0  0  0  0  0  0  0
  -21.9577   33.4610  -17.1721 H   0  0  0  0  0  0  0  0  0  0  0  0
  -24.7576   32.9392  -16.0988 H   0  0  0  0  0  0  0  0  0  0  0  0
  -20.5036   34.8274  -14.2735 H   0  0  0  0  0  0  0  0  0  0  0  0
  -18.8145   34.3113  -14.1796 H   0  0  0  0  0  0  0  0  0  0  0  0
  -18.9569   32.8410  -17.0266 H   0  0  0  0  0  0  0  0  0  0  0  0
  -19.7242   33.9203  -18.1522 H   0  0  0  0  0  0  0  0  0  0  0  0
  -23.7668   28.6106  -18.1714 H   0  0  0  0  0  0  0  0  0  0  0  0
  -26.3226   32.0442  -17.8252 H   0  0  0  0  0  0  0  0  0  0  0  0
  -25.8214   29.8358  -18.8850 H   0  0  0  0  0  0  0  0  0  0  0  0
  -16.6414   36.3629  -15.6329 H   0  0  0  0  0  0  0  0  0  0  0  0
  -19.9537   38.5323  -12.7455 H   0  0  0  0  0  0  0  0  0  0  0  0
  -15.8450   37.7269  -13.7002 H   0  0  0  0  0  0  0  0  0  0  0  0
  -17.5313   38.8351  -12.2239 H   0  0  0  0  0  0  0  0  0  0  0  0
  1  2  2  0  0  0  0
  2  3  1  0  0  0  0
  2  4  1  0  0  0  0
  3  5  1  0  0  0  0
  3  6  1  0  0  0  0
  4  7  2  0  0  0  0
  4  8  1  0  0  0  0
  5  9  1  0  0  0  0
  5 23  1  0  0  0  0
  5 24  1  0  0  0  0
  6 10  1  0  0  0  0
  6 25  1  0  0  0  0
  6 26  1  0  0  0  0
  7 11  1  0  0  0  0
  8 12  2  0  0  0  0
  8 27  1  0  0  0  0
  9 13  1  0  0  0  0
  9 28  1  0  0  0  0
  9 29  1  0  0  0  0
 10 13  1  0  0  0  0
 10 30  1  0  0  0  0
 10 31  1  0  0  0  0
 11 14  2  0  0  0  0
 11 32  1  0  0  0  0
 12 14  1  0  0  0  0
 12 33  1  0  0  0  0
 13 15  1  0  0  0  0
 14 34  1  0  0  0  0
 15 16  2  0  0  0  0
 15 17  1  0  0  0  0
 17 18  2  0  0  0  0
 17 19  1  0  0  0  0
 18 20  1  0  0  0  0
 19 21  2  0  0  0  0
 19 35  1  0  0  0  0
 20 22  2  0  0  0  0
 20 36  1  0  0  0  0
 21 22  1  0  0  0  0
 21 37  1  0  0  0  0
 22 38  1  0  0  0  0
M  END
>  <Column 1>
O=C(c1ccccn1)N1CCN(C(=O)c2ccccn2)CC1 ZINC000000022418

>  <Total Molweight>
296.329

>  <cLogP>
1.05

>  <cLogS>
-0.738

>  <H-Acceptors>
6

>  <H-Donors>
0

>  <Total Surface Area>
228.18

>  <MMFF94 Energy>
145.25

> <Gold.Version>
5.8.1

> <Gold.Id.Protein>
ID|2FQT|mol2

> <Gold.PLP.Fitness>
51.6080

> <Gold.PLP.PLP>
-49.2490

> <Gold.PLP.part.hbond>
-2.9938

> <Gold.PLP.part.metal>
0.0000

> <Gold.PLP.part.buried>
-4.0035

> <Gold.PLP.part.nonpolar>
-42.2309

> <Gold.PLP.part.repulsive>
0.4971

> <Gold.PLP.ligand.clash>
0.0000

> <Gold.PLP.ligand.torsion>
3.0861

> <Gold.PLP.Chemscore.Hbond>
1.6616

> <Gold.PLP.Chemscore.CHOScore>
0.9926

> <Gold.PLP.Chemscore.Metal>
0.0000

> <Gold.Chemscore.Hbonds>
donor molecule, donor type, donor heavy atom, donor atom, acceptor molecule, acceptor atom, score
      P1  H  1223  2649       L1    16  0.94
      P1  H  1230  2756       L1    16  0.72
      L1  C    20    36       P1   457  0.99

> <Gold.PLP.Chemscore.Internal.Correction>
0.5686

> <Gold.Protein.RotatedTorsions>
[ 3412  950  949  948 ] final  113.74 input   60.00 | X-H torsion
[ 3476 1244 1243 1240 ] final -110.97 input   60.00 | X-H torsion
[ 2649 1223 1224 1225 ] final   -6.20 input   60.00 | X-H torsion
[ 4380 1912 1911 1909 ] final  174.10 input   60.00 | X-H torsion
[ 3084  621  620  617 ] final -128.81 input   60.00 | X-H torsion

> <Gold.Protein.ActiveResidues>
 HIS54   GLU57   HIS58   ALA61   PHE62   ILE64   ARG65   ASP75   ILE76   ILE77  
 ASP78   ILE79   SER80   PRO81   ILE118  PRO119  ALA120  ALA121  ASN122  LYS124 
 GLN125  CYS126  GLY127  CO701   VAL4    GLU5    SER6    PHE7    GLU8    LEU9   
 HIS11   ARG20   HIS21   CYS22   GLY23   VAL24   HIS25   LYS35   ARG39   MET82  
 GLY83   CYS84   TYR89  

> <Gold.Protein.RotatedAtoms>
  -20.5154   37.5456  -17.5348 H   0  0  0  0  0  0  0  0  0  0  0  0  # atno 2649 bound_to 1223
  -20.5268   38.9368  -16.6340 H   0  0  0  0  0  0  0  0  0  0  0  0  # atno 2650 bound_to 1223
  -19.0960   27.3726  -14.0498 H   0  0  0  0  0  0  0  0  0  0  0  0  # atno 3084 bound_to 621 
  -27.6509   37.7983  -29.0758 H   0  0  0  0  0  0  0  0  0  0  0  0  # atno 3412 bound_to 950 
  -28.3544   39.2931  -29.2106 H   0  0  0  0  0  0  0  0  0  0  0  0  # atno 3413 bound_to 950 
  -28.8253   38.2614  -28.0018 H   0  0  0  0  0  0  0  0  0  0  0  0  # atno 3414 bound_to 950 
  -24.3685   32.3238  -20.0193 H   0  0  0  0  0  0  0  0  0  0  0  0  # atno 3476 bound_to 1244
  -19.7202   31.6419  -20.0849 H   0  0  0  0  0  0  0  0  0  0  0  0  # atno 4380 bound_to 1912
  -23.0408   31.4017  -20.2057 LP  0  0  0  0  0  0  0  0  0  0  0  0  # atno 4866 bound_to 1244
  -23.5788   32.3228  -21.4421 LP  0  0  0  0  0  0  0  0  0  0  0  0  # atno 4867 bound_to 1244
  -21.5672   37.7122  -16.2807 LP  0  0  0  0  0  0  0  0  0  0  0  0  # atno 4874 bound_to 1223
  -20.7315   31.5996  -18.8107 LP  0  0  0  0  0  0  0  0  0  0  0  0  # atno 4875 bound_to 1912
  -20.9888   30.6228  -20.0937 LP  0  0  0  0  0  0  0  0  0  0  0  0  # atno 4876 bound_to 1912
  -17.9835   28.1236  -13.1297 LP  0  0  0  0  0  0  0  0  0  0  0  0  # atno 4881 bound_to 621 
  -19.5007   28.7191  -13.2305 LP  0  0  0  0  0  0  0  0  0  0  0  0  # atno 4882 bound_to 621 

$$$$
Compound 115|Decoys_protonated|sdf|115|dock1
  -GOLD-   6122416193D 1   1.00000     0.00000

 34 37  0  0  0  0  0  0  0  0  1 V2000
  -17.8720   34.4200  -18.9309 S   0  0  0  0  0  0  0  0  0  0  0  0
  -19.4183   33.7104  -18.7107 N   0  0  0  0  0  0  0  0  0  0  0  0
  -17.8362   35.0046  -17.3223 C   0  0  0  0  0  0  0  0  0  0  0  0
  -19.8694   33.9339  -17.5009 C   0  0  0  0  0  0  0  0  0  0  0  0
  -17.0083   35.6910  -16.5890 N   0  0  0  0  0  0  0  0  0  0  0  0
  -18.9699   34.6298  -16.6944 N   0  0  0  0  0  0  0  0  0  0  0  0
  -21.1082   33.5276  -17.0363 N   0  0  0  0  0  0  0  0  0  0  0  0
  -17.6378   35.7102  -15.3598 C   0  0  0  0  0  0  0  0  0  0  0  0
  -18.8629   35.0228  -15.3841 C   0  0  0  0  0  0  0  0  0  0  0  0
  -21.1981   32.3330  -16.1734 C   0  0  0  0  0  0  0  0  0  0  0  0
  -22.0837   34.5684  -16.6582 C   0  0  0  0  0  0  0  0  0  0  0  0
  -17.2016   36.2872  -14.1571 C   0  0  0  0  0  0  0  0  0  0  0  0
  -19.6474   34.8447  -14.2390 C   0  0  0  0  0  0  0  0  0  0  0  0
  -22.6435   31.7938  -16.1124 C   0  0  0  0  0  0  0  0  0  0  0  0
  -23.5131   33.9908  -16.5994 C   0  0  0  0  0  0  0  0  0  0  0  0
  -17.9902   36.1415  -13.0099 C   0  0  0  0  0  0  0  0  0  0  0  0
  -19.1874   35.4255  -13.0517 C   0  0  0  0  0  0  0  0  0  0  0  0
  -23.6138   32.8257  -15.6953 N   0  0  0  0  0  0  0  0  0  0  0  0
  -24.9735   32.2897  -15.6911 C   0  0  0  0  0  0  0  0  0  0  0  0
  -20.5361   31.5375  -16.5297 H   0  0  0  0  0  0  0  0  0  0  0  0
  -20.8602   32.5981  -15.1633 H   0  0  0  0  0  0  0  0  0  0  0  0
  -21.8100   34.9939  -15.6846 H   0  0  0  0  0  0  0  0  0  0  0  0
  -22.0670   35.3804  -17.3950 H   0  0  0  0  0  0  0  0  0  0  0  0
  -16.2599   36.8245  -14.1243 H   0  0  0  0  0  0  0  0  0  0  0  0
  -20.5643   34.2683  -14.2547 H   0  0  0  0  0  0  0  0  0  0  0  0
  -22.6678   30.9595  -15.4012 H   0  0  0  0  0  0  0  0  0  0  0  0
  -22.9188   31.3934  -17.0966 H   0  0  0  0  0  0  0  0  0  0  0  0
  -24.1890   34.7823  -16.2548 H   0  0  0  0  0  0  0  0  0  0  0  0
  -23.8249   33.7102  -17.6145 H   0  0  0  0  0  0  0  0  0  0  0  0
  -17.6554   36.5804  -12.0726 H   0  0  0  0  0  0  0  0  0  0  0  0
  -19.7712   35.3104  -12.1401 H   0  0  0  0  0  0  0  0  0  0  0  0
  -25.0512   31.4476  -14.9947 H   0  0  0  0  0  0  0  0  0  0  0  0
  -25.2886   31.9468  -16.6831 H   0  0  0  0  0  0  0  0  0  0  0  0
  -25.6839   33.0494  -15.3473 H   0  0  0  0  0  0  0  0  0  0  0  0
  1  2  1  0  0  0  0
  1  3  1  0  0  0  0
  2  4  2  0  0  0  0
  3  5  2  0  0  0  0
  3  6  1  0  0  0  0
  4  7  1  0  0  0  0
  4  6  1  0  0  0  0
  5  8  1  0  0  0  0
  6  9  1  0  0  0  0
  7 10  1  0  0  0  0
  7 11  1  0  0  0  0
  8 12  1  0  0  0  0
  8  9  2  0  0  0  0
  9 13  1  0  0  0  0
 10 14  1  0  0  0  0
 10 20  1  0  0  0  0
 10 21  1  0  0  0  0
 11 15  1  0  0  0  0
 11 22  1  0  0  0  0
 11 23  1  0  0  0  0
 12 16  2  0  0  0  0
 12 24  1  0  0  0  0
 13 17  2  0  0  0  0
 13 25  1  0  0  0  0
 14 18  1  0  0  0  0
 14 26  1  0  0  0  0
 14 27  1  0  0  0  0
 15 18  1  0  0  0  0
 15 28  1  0  0  0  0
 15 29  1  0  0  0  0
 16 17  1  0  0  0  0
 16 30  1  0  0  0  0
 17 31  1  0  0  0  0
 18 19  1  0  0  0  0
 19 32  1  0  0  0  0
 19 33  1  0  0  0  0
 19 34  1  0  0  0  0
M  END
>  <Column 1>
CN1CCN(c2nsc3nc4ccccc4n23)CC1 ZINC000000022789

>  <Total Molweight>
273.363

>  <cLogP>
2.25

>  <cLogS>
-0.565

>  <H-Acceptors>
5

>  <H-Donors>
0

>  <Total Surface Area>
200.97

>  <MMFF94 Energy>
108.15

> <Gold.Version>
5.8.1

> <Gold.Id.Protein>
ID|2FQT|mol2

> <Gold.PLP.Fitness>
50.7827

> <Gold.PLP.PLP>
-47.8539

> <Gold.PLP.part.hbond>
-1.9526

> <Gold.PLP.part.metal>
0.0000

> <Gold.PLP.part.buried>
-8.5083

> <Gold.PLP.part.nonpolar>
-37.6140

> <Gold.PLP.part.repulsive>
0.2022

> <Gold.PLP.ligand.clash>
0.0000

> <Gold.PLP.ligand.torsion>
0.2662

> <Gold.PLP.Chemscore.Hbond>
1.0000

> <Gold.PLP.Chemscore.CHOScore>
0.0000

> <Gold.PLP.Chemscore.Metal>
0.0000

> <Gold.Chemscore.Hbonds>
donor molecule, donor type, donor heavy atom, donor atom, acceptor molecule, acceptor atom, score
      P1  H  1912  4380       L1     2  1.00

> <Gold.PLP.Chemscore.Internal.Correction>
0.4612

> <Gold.Protein.RotatedTorsions>
[ 3412  950  949  948 ] final   97.16 input   60.00 | X-H torsion
[ 3476 1244 1243 1240 ] final  131.62 input   60.00 | X-H torsion
[ 2649 1223 1224 1225 ] final -144.19 input   60.00 | X-H torsion
[ 4380 1912 1911 1909 ] final  110.66 input   60.00 | X-H torsion
[ 3084  621  620  617 ] final   51.83 input   60.00 | X-H torsion

> <Gold.Protein.ActiveResidues>
 HIS54   GLU57   HIS58   ALA61   PHE62   ILE64   ARG65   ASP75   ILE76   ILE77  
 ASP78   ILE79   SER80   PRO81   ILE118  PRO119  ALA120  ALA121  ASN122  LYS124 
 GLN125  CYS126  GLY127  CO701   VAL4    GLU5    SER6    PHE7    GLU8    LEU9   
 HIS11   ARG20   HIS21   CYS22   GLY23   VAL24   HIS25   LYS35   ARG39   MET82  
 GLY83   CYS84   TYR89  

> <Gold.Protein.RotatedAtoms>
  -21.5419   37.9704  -16.1356 H   0  0  0  0  0  0  0  0  0  0  0  0  # atno 2649 bound_to 1223
  -20.7195   37.3512  -17.4346 H   0  0  0  0  0  0  0  0  0  0  0  0  # atno 2650 bound_to 1223
  -18.6163   28.7620  -12.8899 H   0  0  0  0  0  0  0  0  0  0  0  0  # atno 3084 bound_to 621 
  -27.7545   37.6555  -28.8635 H   0  0  0  0  0  0  0  0  0  0  0  0  # atno 3412 bound_to 950 
  -28.1576   39.1817  -29.3689 H   0  0  0  0  0  0  0  0  0  0  0  0  # atno 3413 bound_to 950 
  -28.9184   38.5156  -28.0556 H   0  0  0  0  0  0  0  0  0  0  0  0  # atno 3414 bound_to 950 
  -23.0651   31.4084  -20.1709 H   0  0  0  0  0  0  0  0  0  0  0  0  # atno 3476 bound_to 1244
  -20.0069   31.9471  -19.1940 H   0  0  0  0  0  0  0  0  0  0  0  0  # atno 4380 bound_to 1912
  -23.5441   32.2984  -21.4462 LP  0  0  0  0  0  0  0  0  0  0  0  0  # atno 4866 bound_to 1244
  -24.3882   32.3479  -20.0491 LP  0  0  0  0  0  0  0  0  0  0  0  0  # atno 4867 bound_to 1244
  -20.3660   38.8558  -16.8705 LP  0  0  0  0  0  0  0  0  0  0  0  0  # atno 4874 bound_to 1223
  -21.2490   30.8997  -19.2852 LP  0  0  0  0  0  0  0  0  0  0  0  0  # atno 4875 bound_to 1912
  -20.1826   31.0153  -20.5165 LP  0  0  0  0  0  0  0  0  0  0  0  0  # atno 4876 bound_to 1912
  -19.7399   28.0264  -13.8088 LP  0  0  0  0  0  0  0  0  0  0  0  0  # atno 4881 bound_to 621 
  -18.2274   27.4171  -13.7194 LP  0  0  0  0  0  0  0  0  0  0  0  0  # atno 4882 bound_to 621 

$$$$
Compound 116|Decoys_protonated|sdf|116|dock3
  -GOLD-   6122416193D 1   1.00000     0.00000

 35 36  0  0  0  0  0  0  0  0  1 V2000
  -18.1032   35.8439  -16.8447 S   0  0  0  0  0  0  0  0  0  0  0  0
  -17.0398   35.0341  -17.3897 O   0  0  0  0  0  0  0  0  0  0  0  0
  -18.5289   37.0621  -17.4955 O   0  0  0  0  0  0  0  0  0  0  0  0
  -19.4688   34.8644  -16.6318 N   0  0  0  0  0  0  0  0  0  0  0  0
  -17.7464   36.2385  -15.2503 N   0  0  0  0  0  0  0  0  0  0  0  0
  -19.3002   33.4357  -17.0557 C   0  0  0  0  0  0  0  0  0  0  0  0
  -20.7078   35.4138  -17.2810 C   0  0  0  0  0  0  0  0  0  0  0  0
  -18.2162   35.3750  -14.1650 C   0  0  0  0  0  0  0  0  0  0  0  0
  -17.7302   37.6685  -14.9093 C   0  0  0  0  0  0  0  0  0  0  0  0
  -20.5007   32.5890  -16.6005 C   0  0  0  0  0  0  0  0  0  0  0  0
  -21.9513   34.6141  -16.8525 C   0  0  0  0  0  0  0  0  0  0  0  0
  -21.7662   33.1741  -17.0434 N   0  0  0  0  0  0  0  0  0  0  0  0
  -22.8925   32.3748  -16.9852 C   0  0  0  0  0  0  0  0  0  0  0  0
  -22.8869   31.1962  -17.6327 N   0  0  0  0  0  0  0  0  0  0  0  0
  -23.9602   32.8062  -16.2916 N   0  0  0  0  0  0  0  0  0  0  0  0
  -24.0004   30.4409  -17.5758 C   0  0  0  0  0  0  0  0  0  0  0  0
  -25.0524   32.0193  -16.2610 C   0  0  0  0  0  0  0  0  0  0  0  0
  -25.1304   30.8077  -16.8945 C   0  0  0  0  0  0  0  0  0  0  0  0
  -18.3949   33.0051  -16.6245 H   0  0  0  0  0  0  0  0  0  0  0  0
  -19.2135   33.3867  -18.1484 H   0  0  0  0  0  0  0  0  0  0  0  0
  -20.5945   35.3772  -18.3713 H   0  0  0  0  0  0  0  0  0  0  0  0
  -20.8655   36.4549  -16.9822 H   0  0  0  0  0  0  0  0  0  0  0  0
  -19.1874   35.7078  -13.7884 H   0  0  0  0  0  0  0  0  0  0  0  0
  -18.2880   34.3292  -14.4739 H   0  0  0  0  0  0  0  0  0  0  0  0
  -17.4978   35.4102  -13.3391 H   0  0  0  0  0  0  0  0  0  0  0  0
  -18.7479   38.0627  -14.8362 H   0  0  0  0  0  0  0  0  0  0  0  0
  -17.1678   38.2476  -15.6468 H   0  0  0  0  0  0  0  0  0  0  0  0
  -17.2322   37.8159  -13.9451 H   0  0  0  0  0  0  0  0  0  0  0  0
  -20.5003   32.5148  -15.5055 H   0  0  0  0  0  0  0  0  0  0  0  0
  -20.3567   31.5809  -17.0075 H   0  0  0  0  0  0  0  0  0  0  0  0
  -22.1602   34.8107  -15.7930 H   0  0  0  0  0  0  0  0  0  0  0  0
  -22.7968   34.9944  -17.4386 H   0  0  0  0  0  0  0  0  0  0  0  0
  -23.9490   29.5009  -18.1166 H   0  0  0  0  0  0  0  0  0  0  0  0
  -25.8887   32.4124  -15.6913 H   0  0  0  0  0  0  0  0  0  0  0  0
  -26.0154   30.1898  -16.8606 H   0  0  0  0  0  0  0  0  0  0  0  0
  1  2  2  0  0  0  0
  1  3  2  0  0  0  0
  1  4  1  0  0  0  0
  1  5  1  0  0  0  0
  4  6  1  0  0  0  0
  4  7  1  0  0  0  0
  5  8  1  0  0  0  0
  5  9  1  0  0  0  0
  6 10  1  0  0  0  0
  6 19  1  0  0  0  0
  6 20  1  0  0  0  0
  7 11  1  0  0  0  0
  7 21  1  0  0  0  0
  7 22  1  0  0  0  0
  8 23  1  0  0  0  0
  8 24  1  0  0  0  0
  8 25  1  0  0  0  0
  9 26  1  0  0  0  0
  9 27  1  0  0  0  0
  9 28  1  0  0  0  0
 10 12  1  0  0  0  0
 10 29  1  0  0  0  0
 10 30  1  0  0  0  0
 11 12  1  0  0  0  0
 11 31  1  0  0  0  0
 11 32  1  0  0  0  0
 12 13  1  0  0  0  0
 13 14  2  0  0  0  0
 13 15  1  0  0  0  0
 14 16  1  0  0  0  0
 15 17  2  0  0  0  0
 16 18  2  0  0  0  0
 16 33  1  0  0  0  0
 17 18  1  0  0  0  0
 17 34  1  0  0  0  0
 18 35  1  0  0  0  0
M  END
>  <Column 1>
CN(C)S(=O)(=O)N1CCN(c2ncccn2)CC1 ZINC000000023204

>  <Total Molweight>
271.344

>  <cLogP>
-0.2794

>  <cLogS>
-0.223

>  <H-Acceptors>
7

>  <H-Donors>
0

>  <Total Surface Area>
196.32

>  <MMFF94 Energy>
-179.36

> <Gold.Version>
5.8.1

> <Gold.Id.Protein>
ID|2FQT|mol2

> <Gold.PLP.Fitness>
44.7972

> <Gold.PLP.PLP>
-35.0390

> <Gold.PLP.part.hbond>
-4.6160

> <Gold.PLP.part.metal>
0.0000

> <Gold.PLP.part.buried>
-1.4146

> <Gold.PLP.part.nonpolar>
-28.6758

> <Gold.PLP.part.repulsive>
0.0904

> <Gold.PLP.ligand.clash>
0.0000

> <Gold.PLP.ligand.torsion>
1.9251

> <Gold.PLP.Chemscore.Hbond>
3.7156

> <Gold.PLP.Chemscore.CHOScore>
0.0000

> <Gold.PLP.Chemscore.Metal>
0.0000

> <Gold.Chemscore.Hbonds>
donor molecule, donor type, donor heavy atom, donor atom, acceptor molecule, acceptor atom, score
      P1  H  1244  3476       L1    14  0.12
      P1  H  1223  2650       L1     3  0.93
      P1  H  1912  4380       L1    14  0.67
      P1  H  1230  2756       L1     3  1.00
      P1  H  1466  3954       L1     2  1.00

> <Gold.PLP.Chemscore.Internal.Correction>
2.4618

> <Gold.Protein.RotatedTorsions>
[ 3412  950  949  948 ] final -173.62 input   60.00 | X-H torsion
[ 3476 1244 1243 1240 ] final  156.57 input   60.00 | X-H torsion
[ 2649 1223 1224 1225 ] final -102.26 input   60.00 | X-H torsion
[ 4380 1912 1911 1909 ] final    9.78 input   60.00 | X-H torsion
[ 3084  621  620  617 ] final  -11.13 input   60.00 | X-H torsion

> <Gold.Protein.ActiveResidues>
 HIS54   GLU57   HIS58   ALA61   PHE62   ILE64   ARG65   ASP75   ILE76   ILE77  
 ASP78   ILE79   SER80   PRO81   ILE118  PRO119  ALA120  ALA121  ASN122  LYS124 
 GLN125  CYS126  GLY127  CO701   VAL4    GLU5    SER6    PHE7    GLU8    LEU9   
 HIS11   ARG20   HIS21   CYS22   GLY23   VAL24   HIS25   LYS35   ARG39   MET82  
 GLY83   CYS84   TYR89  

> <Gold.Protein.RotatedAtoms>
  -21.5111   37.4097  -16.5274 H   0  0  0  0  0  0  0  0  0  0  0  0  # atno 2649 bound_to 1223
  -20.3007   37.8786  -17.5581 H   0  0  0  0  0  0  0  0  0  0  0  0  # atno 2650 bound_to 1223
  -19.5221   28.6953  -13.2520 H   0  0  0  0  0  0  0  0  0  0  0  0  # atno 3084 bound_to 621 
  -27.8305   38.8246  -29.5222 H   0  0  0  0  0  0  0  0  0  0  0  0  # atno 3412 bound_to 950 
  -28.9472   38.9575  -28.3045 H   0  0  0  0  0  0  0  0  0  0  0  0  # atno 3413 bound_to 950 
  -28.0529   37.5707  -28.4614 H   0  0  0  0  0  0  0  0  0  0  0  0  # atno 3414 bound_to 950 
  -23.3252   31.4773  -19.8687 H   0  0  0  0  0  0  0  0  0  0  0  0  # atno 3476 bound_to 1244
  -21.1667   31.0983  -19.0589 H   0  0  0  0  0  0  0  0  0  0  0  0  # atno 4380 bound_to 1912
  -23.2324   32.0417  -21.3921 LP  0  0  0  0  0  0  0  0  0  0  0  0  # atno 4866 bound_to 1244
  -24.4380   32.5352  -20.4075 LP  0  0  0  0  0  0  0  0  0  0  0  0  # atno 4867 bound_to 1244
  -20.8090   38.8885  -16.3628 LP  0  0  0  0  0  0  0  0  0  0  0  0  # atno 4874 bound_to 1223
  -20.4341   30.8312  -20.4872 LP  0  0  0  0  0  0  0  0  0  0  0  0  # atno 4875 bound_to 1912
  -19.8294   31.9387  -19.4506 LP  0  0  0  0  0  0  0  0  0  0  0  0  # atno 4876 bound_to 1912
  -19.0614   27.3557  -14.0528 LP  0  0  0  0  0  0  0  0  0  0  0  0  # atno 4881 bound_to 621 
  -17.9937   28.1550  -13.1107 LP  0  0  0  0  0  0  0  0  0  0  0  0  # atno 4882 bound_to 621 

$$$$
Compound 117|Decoys_protonated|sdf|117|dock1
  -GOLD-   6122416193D 1   1.00000     0.00000

 19 20  0  0  0  0  0  0  0  0  1 V2000
  -23.3433   31.0065  -17.5041 S   0  0  0  0  0  0  0  0  0  0  0  0
  -22.1555   31.7788  -16.6141 C   0  0  0  0  0  0  0  0  0  0  0  0
  -21.1246   32.4115  -17.2815 N   0  0  0  0  0  0  0  0  0  0  0  0
  -22.1369   31.8205  -15.1141 C   0  0  0  0  0  0  0  0  0  0  0  0
  -20.1202   33.0632  -16.5879 C   0  0  0  0  0  0  0  0  0  0  0  0
  -21.1261   32.4382  -14.4821 C   0  0  0  0  0  0  0  0  0  0  0  0
  -20.1219   33.0499  -15.2118 N   0  0  0  0  0  0  0  0  0  0  0  0
  -18.9997   33.7802  -16.9688 C   0  0  0  0  0  0  0  0  0  0  0  0
  -19.0042   33.7265  -14.8080 C   0  0  0  0  0  0  0  0  0  0  0  0
  -18.3102   34.1774  -15.8302 N   0  0  0  0  0  0  0  0  0  0  0  0
  -18.5900   34.1095  -18.3223 C   0  0  0  0  0  0  0  0  0  0  0  0
  -17.2662   35.0734  -18.5873 S   0  0  0  0  0  0  0  0  0  0  0  0
  -19.3259   33.6030  -19.3587 N   0  0  0  0  0  0  0  0  0  0  0  0
  -21.0820   32.3324  -18.2923 H   0  0  0  0  0  0  0  0  0  0  0  0
  -22.9401   31.3318  -14.5742 H   0  0  0  0  0  0  0  0  0  0  0  0
  -21.0563   32.4857  -13.4025 H   0  0  0  0  0  0  0  0  0  0  0  0
  -18.7483   33.8611  -13.7659 H   0  0  0  0  0  0  0  0  0  0  0  0
  -19.1288   33.9257  -20.2983 H   0  0  0  0  0  0  0  0  0  0  0  0
  -20.1349   33.0146  -19.2108 H   0  0  0  0  0  0  0  0  0  0  0  0
  1  2  2  0  0  0  0
  2  3  1  0  0  0  0
  2  4  1  0  0  0  0
  3  5  1  0  0  0  0
  3 14  1  0  0  0  0
  4  6  2  0  0  0  0
  4 15  1  0  0  0  0
  5  7  1  0  0  0  0
  5  8  2  0  0  0  0
  6  7  1  0  0  0  0
  6 16  1  0  0  0  0
  7  9  1  0  0  0  0
  8 10  1  0  0  0  0
  8 11  1  0  0  0  0
  9 10  2  0  0  0  0
  9 17  1  0  0  0  0
 11 12  2  0  0  0  0
 11 13  1  0  0  0  0
 13 18  1  0  0  0  0
 13 19  1  0  0  0  0
M  END
>  <Column 1>
NC(=S)c1ncn2ccc(=S)[nH]c12 ZINC000000023660

>  <Total Molweight>
210.285

>  <cLogP>
-0.2292

>  <cLogS>
-2.09

>  <H-Acceptors>
4

>  <H-Donors>
2

>  <Total Surface Area>
159.62

>  <MMFF94 Energy>
40.425

> <Gold.Version>
5.8.1

> <Gold.Id.Protein>
ID|2FQT|mol2

> <Gold.PLP.Fitness>
42.6866

> <Gold.PLP.PLP>
-31.5483

> <Gold.PLP.part.hbond>
-3.9752

> <Gold.PLP.part.metal>
0.0000

> <Gold.PLP.part.buried>
-3.0196

> <Gold.PLP.part.nonpolar>
-25.1875

> <Gold.PLP.part.repulsive>
0.7802

> <Gold.PLP.ligand.clash>
0.0000

> <Gold.PLP.ligand.torsion>
0.0063

> <Gold.PLP.Chemscore.Hbond>
2.7739

> <Gold.PLP.Chemscore.CHOScore>
0.9428

> <Gold.PLP.Chemscore.Metal>
0.0000

> <Gold.Chemscore.Hbonds>
donor molecule, donor type, donor heavy atom, donor atom, acceptor molecule, acceptor atom, score
      L1  H     3    14       P1  1912  0.69
      L1  H    13    18       P1  1237  0.99
      L1  H    13    19       P1  1912  0.56
      P1  H  1244  3476       L1     1  0.49
      P1  H  1466  3954       L1    10  0.05
      L1  C     6    16       P1   611  0.94

> <Gold.PLP.Chemscore.Internal.Correction>
0.0005

> <Gold.Protein.RotatedTorsions>
[ 3412  950  949  948 ] final    1.36 input   60.00 | X-H torsion
[ 3476 1244 1243 1240 ] final -174.28 input   60.00 | X-H torsion
[ 2649 1223 1224 1225 ] final   30.08 input   60.00 | X-H torsion
[ 4380 1912 1911 1909 ] final  -85.85 input   60.00 | X-H torsion
[ 3084  621  620  617 ] final  178.10 input   60.00 | X-H torsion

> <Gold.Protein.ActiveResidues>
 HIS54   GLU57   HIS58   ALA61   PHE62   ILE64   ARG65   ASP75   ILE76   ILE77  
 ASP78   ILE79   SER80   PRO81   ILE118  PRO119  ALA120  ALA121  ASN122  LYS124 
 GLN125  CYS126  GLY127  CO701   VAL4    GLU5    SER6    PHE7    GLU8    LEU9   
 HIS11   ARG20   HIS21   CYS22   GLY23   VAL24   HIS25   LYS35   ARG39   MET82  
 GLY83   CYS84   TYR89  

> <Gold.Protein.RotatedAtoms>
  -20.2267   38.0666  -17.5193 H   0  0  0  0  0  0  0  0  0  0  0  0  # atno 2649 bound_to 1223
  -20.9555   38.8218  -16.2364 H   0  0  0  0  0  0  0  0  0  0  0  0  # atno 2650 bound_to 1223
  -18.3067   27.3778  -13.7720 H   0  0  0  0  0  0  0  0  0  0  0  0  # atno 3084 bound_to 621 
  -28.7667   38.1488  -27.9982 H   0  0  0  0  0  0  0  0  0  0  0  0  # atno 3412 bound_to 950 
  -27.6204   37.8830  -29.1655 H   0  0  0  0  0  0  0  0  0  0  0  0  # atno 3413 bound_to 950 
  -28.4435   39.3210  -29.1244 H   0  0  0  0  0  0  0  0  0  0  0  0  # atno 3414 bound_to 950 
  -23.7046   31.6836  -19.6805 H   0  0  0  0  0  0  0  0  0  0  0  0  # atno 3476 bound_to 1244
  -20.7548   30.6746  -20.3142 H   0  0  0  0  0  0  0  0  0  0  0  0  # atno 4380 bound_to 1912
  -22.9739   31.7394  -21.1334 LP  0  0  0  0  0  0  0  0  0  0  0  0  # atno 4866 bound_to 1244
  -24.3143   32.6298  -20.8557 LP  0  0  0  0  0  0  0  0  0  0  0  0  # atno 4867 bound_to 1244
  -21.4292   37.3122  -16.6876 LP  0  0  0  0  0  0  0  0  0  0  0  0  # atno 4874 bound_to 1223
  -19.7113   31.8171  -19.8106 LP  0  0  0  0  0  0  0  0  0  0  0  0  # atno 4875 bound_to 1912
  -20.9670   31.3794  -18.8629 LP  0  0  0  0  0  0  0  0  0  0  0  0  # atno 4876 bound_to 1912
  -18.5201   28.7257  -12.8855 LP  0  0  0  0  0  0  0  0  0  0  0  0  # atno 4881 bound_to 621 
  -19.7590   28.1118  -13.7544 LP  0  0  0  0  0  0  0  0  0  0  0  0  # atno 4882 bound_to 621 

$$$$
Compound 118|Decoys_protonated|sdf|118|dock2
  -GOLD-   6122416193D 1   1.00000     0.00000

 23 23  0  0  0  0  0  0  0  0  1 V2000
  -22.3986   31.5561  -13.9383 O   0  0  0  0  0  0  0  0  0  0  0  0
  -21.9190   31.4874  -15.2820 C   0  0  1  0  0  0  0  0  0  0  0  0
  -23.0963   31.2107  -16.1910 C   0  0  0  0  0  0  0  0  0  0  0  0
  -21.1913   32.7954  -15.6832 C   0  0  2  0  0  0  0  0  0  0  0  0
  -23.0977   30.0908  -17.0187 C   0  0  0  0  0  0  0  0  0  0  0  0
  -24.2017   32.0652  -16.2706 C   0  0  0  0  0  0  0  0  0  0  0  0
  -20.6819   32.7034  -17.0172 O   0  0  0  0  0  0  0  0  0  0  0  0
  -20.0035   33.0909  -14.7727 C   0  0  0  0  0  0  0  0  0  0  0  0
  -24.0908   29.7847  -17.8845 N   0  0  0  0  0  0  0  0  0  0  0  0
  -25.2469   31.7718  -17.1438 C   0  0  0  0  0  0  0  0  0  0  0  0
  -25.1511   30.6285  -17.9253 C   0  0  0  0  0  0  0  0  0  0  0  0
  -26.1996   30.2806  -18.8446 C   0  0  0  0  0  0  0  0  0  0  0  0
  -27.0241   29.9628  -19.6000 N   0  0  0  0  0  0  0  0  0  0  0  0
  -21.7682   31.0650  -13.3835 H   0  0  0  0  0  0  0  0  0  0  0  0
  -21.2283   30.6366  -15.3417 H   0  0  0  0  0  0  0  0  0  0  0  0
  -21.8755   33.6517  -15.6345 H   0  0  0  0  0  0  0  0  0  0  0  0
  -22.2683   29.3861  -17.0162 H   0  0  0  0  0  0  0  0  0  0  0  0
  -24.2553   32.9537  -15.6439 H   0  0  0  0  0  0  0  0  0  0  0  0
  -20.2051   33.5326  -17.2041 H   0  0  0  0  0  0  0  0  0  0  0  0
  -20.3180   33.2704  -13.7406 H   0  0  0  0  0  0  0  0  0  0  0  0
  -19.4638   33.9768  -15.1256 H   0  0  0  0  0  0  0  0  0  0  0  0
  -19.2873   32.2620  -14.7841 H   0  0  0  0  0  0  0  0  0  0  0  0
  -26.1127   32.4241  -17.2044 H   0  0  0  0  0  0  0  0  0  0  0  0
  1  2  1  0  0  0  0
  1 14  1  0  0  0  0
  2  3  1  0  0  0  0
  2  4  1  0  0  0  0
  2 15  1  0  0  0  0
  3  5  2  0  0  0  0
  3  6  1  0  0  0  0
  4  7  1  0  0  0  0
  4  8  1  0  0  0  0
  4 16  1  0  0  0  0
  5  9  1  0  0  0  0
  5 17  1  0  0  0  0
  6 10  2  0  0  0  0
  6 18  1  0  0  0  0
  7 19  1  0  0  0  0
  8 20  1  0  0  0  0
  8 21  1  0  0  0  0
  8 22  1  0  0  0  0
  9 11  2  0  0  0  0
 10 11  1  0  0  0  0
 10 23  1  0  0  0  0
 11 12  1  0  0  0  0
 12 13  3  0  0  0  0
M  END
>  <Column 1>
C[C@@H](O)[C@@H](O)c1ccc(C#N)nc1 ZINC000000023802

>  <Total Molweight>
178.19

>  <cLogP>
-0.3297

>  <cLogS>
-1.444

>  <H-Acceptors>
4

>  <H-Donors>
2

>  <Total Surface Area>
143.69

>  <MMFF94 Energy>
78.416

> <Gold.Version>
5.8.1

> <Gold.Id.Protein>
ID|2FQT|mol2

> <Gold.PLP.Fitness>
48.8195

> <Gold.PLP.PLP>
-33.8524

> <Gold.PLP.part.hbond>
-3.0000

> <Gold.PLP.part.metal>
-1.0000

> <Gold.PLP.part.buried>
-1.9722

> <Gold.PLP.part.nonpolar>
-28.7850

> <Gold.PLP.part.repulsive>
0.1999

> <Gold.PLP.ligand.clash>
0.0000

> <Gold.PLP.ligand.torsion>
0.0216

> <Gold.PLP.Chemscore.Hbond>
3.0000

> <Gold.PLP.Chemscore.CHOScore>
0.0000

> <Gold.PLP.Chemscore.Metal>
1.0000

> <Gold.Chemscore.Hbonds>
donor molecule, donor type, donor heavy atom, donor atom, acceptor molecule, acceptor atom, score
      L1  H     1    14       P1   611  1.00
      P1  H   966  3428       L1    13  1.00
      P1  H  1912  4380       L1     7  1.00
      P1  M  1222  1222       L1    13  1.00

> <Gold.PLP.Chemscore.Internal.Correction>
0.0103

> <Gold.Protein.RotatedTorsions>
[ 3412  950  949  948 ] final  173.00 input   60.00 | X-H torsion
[ 3476 1244 1243 1240 ] final  178.43 input   60.00 | X-H torsion
[ 2649 1223 1224 1225 ] final -155.73 input   60.00 | X-H torsion
[ 4380 1912 1911 1909 ] final   59.27 input   60.00 | X-H torsion
[ 3084  621  620  617 ] final  174.57 input   60.00 | X-H torsion

> <Gold.Protein.ActiveResidues>
 HIS54   GLU57   HIS58   ALA61   PHE62   ILE64   ARG65   ASP75   ILE76   ILE77  
 ASP78   ILE79   SER80   PRO81   ILE118  PRO119  ALA120  ALA121  ASN122  LYS124 
 GLN125  CYS126  GLY127  CO701   VAL4    GLU5    SER6    PHE7    GLU8    LEU9   
 HIS11   ARG20   HIS21   CYS22   GLY23   VAL24   HIS25   LYS35   ARG39   MET82  
 GLY83   CYS84   TYR89  

> <Gold.Protein.RotatedAtoms>
  -21.4863   38.1472  -16.0839 H   0  0  0  0  0  0  0  0  0  0  0  0  # atno 2649 bound_to 1223
  -20.8597   37.2622  -17.3373 H   0  0  0  0  0  0  0  0  0  0  0  0  # atno 2650 bound_to 1223
  -18.2640   27.4008  -13.7408 H   0  0  0  0  0  0  0  0  0  0  0  0  # atno 3084 bound_to 621 
  -27.7231   38.6293  -29.5225 H   0  0  0  0  0  0  0  0  0  0  0  0  # atno 3412 bound_to 950 
  -28.8993   39.1112  -28.4587 H   0  0  0  0  0  0  0  0  0  0  0  0  # atno 3413 bound_to 950 
  -28.2081   37.6124  -28.3069 H   0  0  0  0  0  0  0  0  0  0  0  0  # atno 3414 bound_to 950 
  -23.6068   31.6215  -19.7078 H   0  0  0  0  0  0  0  0  0  0  0  0  # atno 3476 bound_to 1244
  -20.6615   31.6475  -18.8189 H   0  0  0  0  0  0  0  0  0  0  0  0  # atno 4380 bound_to 1912
  -23.0240   31.8112  -21.2152 LP  0  0  0  0  0  0  0  0  0  0  0  0  # atno 4866 bound_to 1244
  -24.3627   32.6204  -20.7464 LP  0  0  0  0  0  0  0  0  0  0  0  0  # atno 4867 bound_to 1244
  -20.2827   38.7693  -17.0172 LP  0  0  0  0  0  0  0  0  0  0  0  0  # atno 4874 bound_to 1223
  -21.0396   30.6231  -20.0254 LP  0  0  0  0  0  0  0  0  0  0  0  0  # atno 4875 bound_to 1912
  -19.7327   31.5937  -20.1540 LP  0  0  0  0  0  0  0  0  0  0  0  0  # atno 4876 bound_to 1912
  -18.5726   28.7507  -12.8858 LP  0  0  0  0  0  0  0  0  0  0  0  0  # atno 4881 bound_to 621 
  -19.7495   28.0636  -13.7856 LP  0  0  0  0  0  0  0  0  0  0  0  0  # atno 4882 bound_to 621 

$$$$
Compound 119|Decoys_protonated|sdf|119|dock1
  -GOLD-   6122416193D 1   1.00000     0.00000

 21 22  0  0  0  0  0  0  0  0  1 V2000
  -16.3276   37.2148  -17.8722 N   0  0  0  0  0  0  0  0  0  0  0  0
  -16.2876   35.8928  -17.8518 C   0  0  0  0  0  0  0  0  0  0  0  0
  -17.5238   37.7481  -17.6932 C   0  0  0  0  0  0  0  0  0  0  0  0
  -17.3318   35.1073  -17.6704 N   0  0  0  0  0  0  0  0  0  0  0  0
  -15.0752   35.2923  -18.0322 N   0  0  0  0  0  0  0  0  0  0  0  0
  -18.6403   37.0661  -17.5023 N   0  0  0  0  0  0  0  0  0  0  0  0
  -17.6147   39.1099  -17.7063 N   0  0  0  0  0  0  0  0  0  0  0  0
  -18.4961   35.7371  -17.4984 C   0  0  0  0  0  0  0  0  0  0  0  0
  -19.7091   34.9175  -17.2895 C   0  0  0  0  0  0  0  0  0  0  0  0
  -20.8889   35.5561  -17.0260 N   0  0  0  0  0  0  0  0  0  0  0  0
  -19.6791   33.5241  -17.3539 C   0  0  0  0  0  0  0  0  0  0  0  0
  -21.9763   34.7727  -16.8407 C   0  0  0  0  0  0  0  0  0  0  0  0
  -20.7706   32.7334  -17.1681 N   0  0  0  0  0  0  0  0  0  0  0  0
  -21.9190   33.3933  -16.9101 C   0  0  0  0  0  0  0  0  0  0  0  0
  -14.2676   35.8727  -18.1722 H   0  0  0  0  0  0  0  0  0  0  0  0
  -15.0431   34.2872  -18.0170 H   0  0  0  0  0  0  0  0  0  0  0  0
  -16.7705   39.6367  -17.8509 H   0  0  0  0  0  0  0  0  0  0  0  0
  -18.5138   39.5372  -17.5723 H   0  0  0  0  0  0  0  0  0  0  0  0
  -18.7595   32.9848  -17.5609 H   0  0  0  0  0  0  0  0  0  0  0  0
  -22.9047   35.2922  -16.6327 H   0  0  0  0  0  0  0  0  0  0  0  0
  -22.7996   32.7796  -16.7592 H   0  0  0  0  0  0  0  0  0  0  0  0
  1  2  2  0  0  0  0
  1  3  1  0  0  0  0
  2  4  1  0  0  0  0
  2  5  1  0  0  0  0
  3  6  2  0  0  0  0
  3  7  1  0  0  0  0
  4  8  2  0  0  0  0
  5 15  1  0  0  0  0
  5 16  1  0  0  0  0
  6  8  1  0  0  0  0
  7 17  1  0  0  0  0
  7 18  1  0  0  0  0
  8  9  1  0  0  0  0
  9 10  2  0  0  0  0
  9 11  1  0  0  0  0
 10 12  1  0  0  0  0
 11 13  2  0  0  0  0
 11 19  1  0  0  0  0
 12 14  2  0  0  0  0
 12 20  1  0  0  0  0
 13 14  1  0  0  0  0
 14 21  1  0  0  0  0
M  END
>  <Column 1>
Nc1nc(N)nc(-c2cnccn2)n1 ZINC000000023810

>  <Total Molweight>
189.182

>  <cLogP>
-0.9107

>  <cLogS>
-1.93

>  <H-Acceptors>
7

>  <H-Donors>
2

>  <Total Surface Area>
143.86

>  <MMFF94 Energy>
-145.87

> <Gold.Version>
5.8.1

> <Gold.Id.Protein>
ID|2FQT|mol2

> <Gold.PLP.Fitness>
42.6674

> <Gold.PLP.PLP>
-27.6955

> <Gold.PLP.part.hbond>
-5.7269

> <Gold.PLP.part.metal>
0.0000

> <Gold.PLP.part.buried>
-6.5630

> <Gold.PLP.part.nonpolar>
-16.4791

> <Gold.PLP.part.repulsive>
0.2938

> <Gold.PLP.ligand.clash>
0.0000

> <Gold.PLP.ligand.torsion>
0.0080

> <Gold.PLP.Chemscore.Hbond>
4.9960

> <Gold.PLP.Chemscore.CHOScore>
0.0000

> <Gold.PLP.Chemscore.Metal>
0.0000

> <Gold.Chemscore.Hbonds>
donor molecule, donor type, donor heavy atom, donor atom, acceptor molecule, acceptor atom, score
      L1  H     5    15       P1  1396  0.56
      P1  H  1223  2649       L1    10  1.00
      P1  H  1223  2650       L1     6  0.66
      P1  H  1912  4380       L1    13  1.00
      P1  H  1230  2756       L1     6  1.00
      P1  H  1466  3954       L1     4  0.78

> <Gold.PLP.Chemscore.Internal.Correction>
0.0000

> <Gold.Protein.RotatedTorsions>
[ 3412  950  949  948 ] final   74.90 input   60.00 | X-H torsion
[ 3476 1244 1243 1240 ] final   38.28 input   60.00 | X-H torsion
[ 2649 1223 1224 1225 ] final  -75.76 input   60.00 | X-H torsion
[ 4380 1912 1911 1909 ] final   58.62 input   60.00 | X-H torsion
[ 3084  621  620  617 ] final  126.57 input   60.00 | X-H torsion

> <Gold.Protein.ActiveResidues>
 HIS54   GLU57   HIS58   ALA61   PHE62   ILE64   ARG65   ASP75   ILE76   ILE77  
 ASP78   ILE79   SER80   PRO81   ILE118  PRO119  ALA120  ALA121  ASN122  LYS124 
 GLN125  CYS126  GLY127  CO701   VAL4    GLU5    SER6    PHE7    GLU8    LEU9   
 HIS11   ARG20   HIS21   CYS22   GLY23   VAL24   HIS25   LYS35   ARG39   MET82  
 GLY83   CYS84   TYR89  

> <Gold.Protein.RotatedAtoms>
  -21.3141   37.2155  -16.8679 H   0  0  0  0  0  0  0  0  0  0  0  0  # atno 2649 bound_to 1223
  -20.1787   38.2816  -17.4348 H   0  0  0  0  0  0  0  0  0  0  0  0  # atno 2650 bound_to 1223
  -17.9601   27.9146  -13.2680 H   0  0  0  0  0  0  0  0  0  0  0  0  # atno 3084 bound_to 621 
  -27.9598   37.5691  -28.5688 H   0  0  0  0  0  0  0  0  0  0  0  0  # atno 3412 bound_to 950 
  -27.9119   38.9392  -29.5004 H   0  0  0  0  0  0  0  0  0  0  0  0  # atno 3413 bound_to 950 
  -28.9587   38.8445  -28.2188 H   0  0  0  0  0  0  0  0  0  0  0  0  # atno 3414 bound_to 950 
  -23.2153   32.0251  -21.3758 H   0  0  0  0  0  0  0  0  0  0  0  0  # atno 3476 bound_to 1244
  -20.6701   31.6411  -18.8181 H   0  0  0  0  0  0  0  0  0  0  0  0  # atno 4380 bound_to 1912
  -24.4361   32.5448  -20.4338 LP  0  0  0  0  0  0  0  0  0  0  0  0  # atno 4866 bound_to 1244
  -23.3450   31.4804  -19.8479 LP  0  0  0  0  0  0  0  0  0  0  0  0  # atno 4867 bound_to 1244
  -21.1232   38.6829  -16.1488 LP  0  0  0  0  0  0  0  0  0  0  0  0  # atno 4874 bound_to 1223
  -21.0334   30.6227  -20.0342 LP  0  0  0  0  0  0  0  0  0  0  0  0  # atno 4875 bound_to 1912
  -19.7303   31.6005  -20.1460 LP  0  0  0  0  0  0  0  0  0  0  0  0  # atno 4876 bound_to 1912
  -19.3072   28.8115  -13.0973 LP  0  0  0  0  0  0  0  0  0  0  0  0  # atno 4881 bound_to 621 
  -19.3210   27.4854  -14.0502 LP  0  0  0  0  0  0  0  0  0  0  0  0  # atno 4882 bound_to 621 

$$$$
Compound 120|Decoys_protonated|sdf|120|dock3
  -GOLD-   6122416193D 1   1.00000     0.00000

 31 32  0  0  0  0  0  0  0  0  1 V2000
  -19.3034   36.3855  -17.7222 N   0  0  0  0  0  0  0  0  0  0  0  0
  -20.2197   35.4370  -17.8525 N   0  0  0  0  0  0  0  0  0  0  0  0
  -18.2391   35.7623  -17.2027 N   0  0  0  0  0  0  0  0  0  0  0  0
  -19.6470   34.2811  -17.3931 C   0  0  0  0  0  0  0  0  0  0  0  0
  -18.3769   34.4415  -16.9853 N   0  0  0  0  0  0  0  0  0  0  0  0
  -20.3545   32.9760  -17.4069 C   0  0  0  0  0  0  0  0  0  0  0  0
  -21.4972   32.7820  -16.3603 C   0  0  0  0  0  0  0  0  0  0  0  0
  -22.2323   31.4609  -16.7529 C   0  0  0  0  0  0  0  0  0  0  0  0
  -22.5192   33.9480  -16.4384 C   0  0  0  0  0  0  0  0  0  0  0  0
  -20.9150   32.6056  -14.9222 C   0  0  0  0  0  0  0  0  0  0  0  0
  -23.5312   31.2085  -15.9858 C   0  0  0  0  0  0  0  0  0  0  0  0
  -23.7988   33.6941  -15.6415 C   0  0  0  0  0  0  0  0  0  0  0  0
  -20.1733   31.3710  -14.6933 N   0  0  0  0  0  0  0  0  0  0  0  0
  -24.4779   32.3990  -16.0686 C   0  0  0  0  0  0  0  0  0  0  0  0
  -17.3802   36.2621  -16.9906 H   0  0  0  0  0  0  0  0  0  0  0  0
  -20.7689   32.8522  -18.4172 H   0  0  0  0  0  0  0  0  0  0  0  0
  -19.6172   32.1697  -17.2944 H   0  0  0  0  0  0  0  0  0  0  0  0
  -21.5622   30.6026  -16.6163 H   0  0  0  0  0  0  0  0  0  0  0  0
  -22.4809   31.4875  -17.8228 H   0  0  0  0  0  0  0  0  0  0  0  0
  -22.0726   34.8871  -16.0913 H   0  0  0  0  0  0  0  0  0  0  0  0
  -22.7975   34.1126  -17.4884 H   0  0  0  0  0  0  0  0  0  0  0  0
  -21.7314   32.6598  -14.1913 H   0  0  0  0  0  0  0  0  0  0  0  0
  -20.2361   33.4280  -14.6785 H   0  0  0  0  0  0  0  0  0  0  0  0
  -24.0273   30.3217  -16.3973 H   0  0  0  0  0  0  0  0  0  0  0  0
  -23.3160   30.9787  -14.9365 H   0  0  0  0  0  0  0  0  0  0  0  0
  -23.5760   33.6611  -14.5689 H   0  0  0  0  0  0  0  0  0  0  0  0
  -24.4904   34.5317  -15.7906 H   0  0  0  0  0  0  0  0  0  0  0  0
  -19.1736   31.5647  -14.7314 H   0  0  0  0  0  0  0  0  0  0  0  0
  -20.3497   31.0404  -13.7382 H   0  0  0  0  0  0  0  0  0  0  0  0
  -25.3566   32.2170  -15.4395 H   0  0  0  0  0  0  0  0  0  0  0  0
  -24.8412   32.5026  -17.0986 H   0  0  0  0  0  0  0  0  0  0  0  0
  1  2  2  0  0  0  0
  1  3  1  0  0  0  0
  2  4  1  0  0  0  0
  3  5  1  0  0  0  0
  3 15  1  0  0  0  0
  4  6  1  0  0  0  0
  4  5  2  0  0  0  0
  6  7  1  0  0  0  0
  6 16  1  0  0  0  0
  6 17  1  0  0  0  0
  7  8  1  0  0  0  0
  7  9  1  0  0  0  0
  7 10  1  0  0  0  0
  8 11  1  0  0  0  0
  8 18  1  0  0  0  0
  8 19  1  0  0  0  0
  9 12  1  0  0  0  0
  9 20  1  0  0  0  0
  9 21  1  0  0  0  0
 10 13  1  0  0  0  0
 10 22  1  0  0  0  0
 10 23  1  0  0  0  0
 11 14  1  0  0  0  0
 11 24  1  0  0  0  0
 11 25  1  0  0  0  0
 12 14  1  0  0  0  0
 12 26  1  0  0  0  0
 12 27  1  0  0  0  0
 13 28  1  0  0  0  0
 13 29  1  0  0  0  0
 14 30  1  0  0  0  0
 14 31  1  0  0  0  0
M  END
>  <Column 1>
[NH3+]CC1(Cc2nn[n-]n2)CCCCC1 ZINC000000023838

>  <Total Molweight>
195.269

>  <cLogP>
0.2831

>  <cLogS>
-1.612

>  <H-Acceptors>
5

>  <H-Donors>
2

>  <Total Surface Area>
160.86

>  <MMFF94 Energy>
20.695

> <Gold.Version>
5.8.1

> <Gold.Id.Protein>
ID|2FQT|mol2

> <Gold.PLP.Fitness>
45.1297

> <Gold.PLP.PLP>
-31.7685

> <Gold.PLP.part.hbond>
-7.9264

> <Gold.PLP.part.metal>
0.0000

> <Gold.PLP.part.buried>
-2.6279

> <Gold.PLP.part.nonpolar>
-22.9935

> <Gold.PLP.part.repulsive>
0.2170

> <Gold.PLP.ligand.clash>
0.0000

> <Gold.PLP.ligand.torsion>
0.2891

> <Gold.PLP.Chemscore.Hbond>
4.6406

> <Gold.PLP.Chemscore.CHOScore>
0.0000

> <Gold.PLP.Chemscore.Metal>
0.0000

> <Gold.Chemscore.Hbonds>
donor molecule, donor type, donor heavy atom, donor atom, acceptor molecule, acceptor atom, score
      L1  H    13    28       P1   606  0.74
      L1  H    13    29       P1   611  1.00
      P1  H  1223  2649       L1     1  0.88
      P1  H  1230  2756       L1     1  0.64
      P1  H  1239  3336       L1     2  1.00
      P1  H  1466  3954       L1     5  0.38

> <Gold.PLP.Chemscore.Internal.Correction>
0.0173

> <Gold.Protein.RotatedTorsions>
[ 3412  950  949  948 ] final  176.93 input   60.00 | X-H torsion
[ 3476 1244 1243 1240 ] final  -58.62 input   60.00 | X-H torsion
[ 2649 1223 1224 1225 ] final    9.39 input   60.00 | X-H torsion
[ 4380 1912 1911 1909 ] final -163.26 input   60.00 | X-H torsion
[ 3084  621  620  617 ] final -164.41 input   60.00 | X-H torsion

> <Gold.Protein.ActiveResidues>
 HIS54   GLU57   HIS58   ALA61   PHE62   ILE64   ARG65   ASP75   ILE76   ILE77  
 ASP78   ILE79   SER80   PRO81   ILE118  PRO119  ALA120  ALA121  ASN122  LYS124 
 GLN125  CYS126  GLY127  CO701   VAL4    GLU5    SER6    PHE7    GLU8    LEU9   
 HIS11   ARG20   HIS21   CYS22   GLY23   VAL24   HIS25   LYS35   ARG39   MET82  
 GLY83   CYS84   TYR89  

> <Gold.Protein.RotatedAtoms>
  -20.3659   37.7558  -17.5648 H   0  0  0  0  0  0  0  0  0  0  0  0  # atno 2649 bound_to 1223
  -20.7039   38.9294  -16.4442 H   0  0  0  0  0  0  0  0  0  0  0  0  # atno 2650 bound_to 1223
  -18.5458   27.3040  -13.9078 H   0  0  0  0  0  0  0  0  0  0  0  0  # atno 3084 bound_to 621 
  -27.7518   38.6881  -29.5267 H   0  0  0  0  0  0  0  0  0  0  0  0  # atno 3412 bound_to 950 
  -28.9170   39.0695  -28.4113 H   0  0  0  0  0  0  0  0  0  0  0  0  # atno 3413 bound_to 950 
  -28.1618   37.5953  -28.3500 H   0  0  0  0  0  0  0  0  0  0  0  0  # atno 3414 bound_to 950 
  -24.3383   32.6229  -20.7887 H   0  0  0  0  0  0  0  0  0  0  0  0  # atno 3476 bound_to 1244
  -19.8354   31.3990  -20.3356 H   0  0  0  0  0  0  0  0  0  0  0  0  # atno 4380 bound_to 1912
  -23.6476   31.6415  -19.6897 LP  0  0  0  0  0  0  0  0  0  0  0  0  # atno 4866 bound_to 1244
  -23.0024   31.7817  -21.1833 LP  0  0  0  0  0  0  0  0  0  0  0  0  # atno 4867 bound_to 1244
  -21.5400   37.5124  -16.4381 LP  0  0  0  0  0  0  0  0  0  0  0  0  # atno 4874 bound_to 1223
  -20.4292   31.8032  -18.8754 LP  0  0  0  0  0  0  0  0  0  0  0  0  # atno 4875 bound_to 1912
  -21.1751   30.6638  -19.7765 LP  0  0  0  0  0  0  0  0  0  0  0  0  # atno 4876 bound_to 1912
  -18.2831   28.5674  -12.9163 LP  0  0  0  0  0  0  0  0  0  0  0  0  # atno 4881 bound_to 621 
  -19.7553   28.3444  -13.5868 LP  0  0  0  0  0  0  0  0  0  0  0  0  # atno 4882 bound_to 621 

$$$$
Compound 121|Decoys_protonated|sdf|121|dock6
  -GOLD-   6122416193D 1   1.00000     0.00000

 27 28  0  0  0  0  0  0  0  0  1 V2000
  -17.9668   35.9046  -16.9006 S   0  0  0  0  0  0  0  0  0  0  0  0
  -16.7388   35.3326  -17.4179 O   0  0  0  0  0  0  0  0  0  0  0  0
  -18.5544   37.0905  -17.4908 O   0  0  0  0  0  0  0  0  0  0  0  0
  -19.1679   34.6459  -17.0995 C   0  0  0  0  0  0  0  0  0  0  0  0
  -17.8331   36.1141  -15.1463 C   0  0  0  0  0  0  0  0  0  0  0  0
  -19.0596   33.6216  -17.9195 N   0  0  0  0  0  0  0  0  0  0  0  0
  -20.3666   34.5672  -16.4381 N   0  0  0  0  0  0  0  0  0  0  0  0
  -20.2047   32.8775  -17.8091 N   0  0  0  0  0  0  0  0  0  0  0  0
  -21.0176   33.4632  -16.9444 C   0  0  0  0  0  0  0  0  0  0  0  0
  -20.7905   35.4316  -15.3662 C   0  0  0  0  0  0  0  0  0  0  0  0
  -22.3684   32.9954  -16.6178 C   0  0  0  0  0  0  0  0  0  0  0  0
  -22.7305   31.6419  -16.6777 C   0  0  0  0  0  0  0  0  0  0  0  0
  -23.2820   33.8986  -16.0526 C   0  0  0  0  0  0  0  0  0  0  0  0
  -24.0024   31.2217  -16.2748 C   0  0  0  0  0  0  0  0  0  0  0  0
  -24.5531   33.4817  -15.6498 C   0  0  0  0  0  0  0  0  0  0  0  0
  -24.9162   32.1437  -15.7708 C   0  0  0  0  0  0  0  0  0  0  0  0
  -17.5179   35.1706  -14.6968 H   0  0  0  0  0  0  0  0  0  0  0  0
  -18.7982   36.4340  -14.7491 H   0  0  0  0  0  0  0  0  0  0  0  0
  -17.0820   36.8836  -14.9556 H   0  0  0  0  0  0  0  0  0  0  0  0
  -21.4355   34.8788  -14.6796 H   0  0  0  0  0  0  0  0  0  0  0  0
  -19.9225   35.7796  -14.8026 H   0  0  0  0  0  0  0  0  0  0  0  0
  -21.3236   36.2809  -15.7993 H   0  0  0  0  0  0  0  0  0  0  0  0
  -22.0262   30.8861  -17.0125 H   0  0  0  0  0  0  0  0  0  0  0  0
  -23.0060   34.9454  -15.9300 H   0  0  0  0  0  0  0  0  0  0  0  0
  -24.2724   30.1704  -16.3364 H   0  0  0  0  0  0  0  0  0  0  0  0
  -25.2517   34.2018  -15.2312 H   0  0  0  0  0  0  0  0  0  0  0  0
  -25.9023   31.8163  -15.4511 H   0  0  0  0  0  0  0  0  0  0  0  0
  1  2  2  0  0  0  0
  1  3  2  0  0  0  0
  1  4  1  0  0  0  0
  1  5  1  0  0  0  0
  4  6  2  0  0  0  0
  4  7  1  0  0  0  0
  5 17  1  0  0  0  0
  5 18  1  0  0  0  0
  5 19  1  0  0  0  0
  6  8  1  0  0  0  0
  7  9  1  0  0  0  0
  7 10  1  0  0  0  0
  8  9  2  0  0  0  0
  9 11  1  0  0  0  0
 10 20  1  0  0  0  0
 10 21  1  0  0  0  0
 10 22  1  0  0  0  0
 11 12  2  0  0  0  0
 11 13  1  0  0  0  0
 12 14  1  0  0  0  0
 12 23  1  0  0  0  0
 13 15  2  0  0  0  0
 13 24  1  0  0  0  0
 14 16  2  0  0  0  0
 14 25  1  0  0  0  0
 15 16  1  0  0  0  0
 15 26  1  0  0  0  0
 16 27  1  0  0  0  0
M  END
>  <Column 1>
Cn1c(-c2ccccc2)nnc1S(C)(=O)=O ZINC000000024658

>  <Total Molweight>
237.282

>  <cLogP>
0.4494

>  <cLogS>
-2.56

>  <H-Acceptors>
5

>  <H-Donors>
0

>  <Total Surface Area>
172.84

>  <MMFF94 Energy>
45.397

> <Gold.Version>
5.8.1

> <Gold.Id.Protein>
ID|2FQT|mol2

> <Gold.PLP.Fitness>
45.8523

> <Gold.PLP.PLP>
-34.8208

> <Gold.PLP.part.hbond>
-4.1210

> <Gold.PLP.part.metal>
0.0000

> <Gold.PLP.part.buried>
-4.0494

> <Gold.PLP.part.nonpolar>
-27.4948

> <Gold.PLP.part.repulsive>
0.1311

> <Gold.PLP.ligand.clash>
0.0000

> <Gold.PLP.ligand.torsion>
1.3986

> <Gold.PLP.Chemscore.Hbond>
3.9193

> <Gold.PLP.Chemscore.CHOScore>
0.0000

> <Gold.PLP.Chemscore.Metal>
0.0000

> <Gold.Chemscore.Hbonds>
donor molecule, donor type, donor heavy atom, donor atom, acceptor molecule, acceptor atom, score
      P1  H  1223  2650       L1     3  0.93
      P1  H  1912  4380       L1     8  0.99
      P1  H  1230  2756       L1     3  1.00
      P1  H  1466  3954       L1     2  1.00

> <Gold.PLP.Chemscore.Internal.Correction>
2.0710

> <Gold.Protein.RotatedTorsions>
[ 3412  950  949  948 ] final  -94.75 input   60.00 | X-H torsion
[ 3476 1244 1243 1240 ] final  103.32 input   60.00 | X-H torsion
[ 2649 1223 1224 1225 ] final -100.46 input   60.00 | X-H torsion
[ 4380 1912 1911 1909 ] final   66.31 input   60.00 | X-H torsion
[ 3084  621  620  617 ] final  110.36 input   60.00 | X-H torsion

> <Gold.Protein.ActiveResidues>
 HIS54   GLU57   HIS58   ALA61   PHE62   ILE64   ARG65   ASP75   ILE76   ILE77  
 ASP78   ILE79   SER80   PRO81   ILE118  PRO119  ALA120  ALA121  ASN122  LYS124 
 GLN125  CYS126  GLY127  CO701   VAL4    GLU5    SER6    PHE7    GLU8    LEU9   
 HIS11   ARG20   HIS21   CYS22   GLY23   VAL24   HIS25   LYS35   ARG39   MET82  
 GLY83   CYS84   TYR89  

> <Gold.Protein.RotatedAtoms>
  -21.5016   37.3916  -16.5494 H   0  0  0  0  0  0  0  0  0  0  0  0  # atno 2649 bound_to 1223
  -20.2882   37.9057  -17.5545 H   0  0  0  0  0  0  0  0  0  0  0  0  # atno 2650 bound_to 1223
  -17.9937   28.1331  -13.1234 H   0  0  0  0  0  0  0  0  0  0  0  0  # atno 3084 bound_to 621 
  -28.6972   39.3086  -28.8205 H   0  0  0  0  0  0  0  0  0  0  0  0  # atno 3412 bound_to 950 
  -28.5323   37.8383  -28.0733 H   0  0  0  0  0  0  0  0  0  0  0  0  # atno 3413 bound_to 950 
  -27.6011   38.2058  -29.3943 H   0  0  0  0  0  0  0  0  0  0  0  0  # atno 3414 bound_to 950 
  -22.9073   31.4678  -20.5962 H   0  0  0  0  0  0  0  0  0  0  0  0  # atno 3476 bound_to 1244
  -20.5684   31.7129  -18.8343 H   0  0  0  0  0  0  0  0  0  0  0  0  # atno 4380 bound_to 1912
  -23.9214   32.5235  -21.3069 LP  0  0  0  0  0  0  0  0  0  0  0  0  # atno 4866 bound_to 1244
  -24.1699   32.0631  -19.7600 LP  0  0  0  0  0  0  0  0  0  0  0  0  # atno 4867 bound_to 1244
  -20.8306   38.8797  -16.3446 LP  0  0  0  0  0  0  0  0  0  0  0  0  # atno 4874 bound_to 1223
  -21.1012   30.6322  -19.9279 LP  0  0  0  0  0  0  0  0  0  0  0  0  # atno 4875 bound_to 1912
  -19.7649   31.5187  -20.2359 LP  0  0  0  0  0  0  0  0  0  0  0  0  # atno 4876 bound_to 1912
  -19.5099   28.7128  -13.2383 LP  0  0  0  0  0  0  0  0  0  0  0  0  # atno 4881 bound_to 621 
  -19.0843   27.3641  -14.0548 LP  0  0  0  0  0  0  0  0  0  0  0  0  # atno 4882 bound_to 621 

$$$$
Compound 122|Decoys_protonated|sdf|122|dock1
  -GOLD-   6122416193D 1   1.00000     0.00000

 27 28  0  0  0  0  0  0  0  0  1 V2000
  -17.7505   36.2106  -17.3157 S   0  0  0  0  0  0  0  0  0  0  0  0
  -16.6905   35.7683  -18.2004 O   0  0  0  0  0  0  0  0  0  0  0  0
  -18.4345   37.4709  -17.5267 O   0  0  0  0  0  0  0  0  0  0  0  0
  -18.9940   34.9835  -17.4452 C   0  0  0  0  0  0  0  0  0  0  0  0
  -17.2020   36.1051  -15.6341 C   0  0  0  0  0  0  0  0  0  0  0  0
  -19.0701   34.0852  -18.4048 N   0  0  0  0  0  0  0  0  0  0  0  0
  -20.0330   34.7954  -16.5689 N   0  0  0  0  0  0  0  0  0  0  0  0
  -20.1768   33.3150  -18.1663 N   0  0  0  0  0  0  0  0  0  0  0  0
  -20.7882   33.7613  -17.0799 C   0  0  0  0  0  0  0  0  0  0  0  0
  -20.2000   35.4932  -15.3189 C   0  0  0  0  0  0  0  0  0  0  0  0
  -22.0454   33.2177  -16.5592 C   0  0  0  0  0  0  0  0  0  0  0  0
  -23.1926   33.9959  -16.3682 C   0  0  0  0  0  0  0  0  0  0  0  0
  -22.1760   31.8258  -16.4196 C   0  0  0  0  0  0  0  0  0  0  0  0
  -23.1682   35.3181  -16.5926 F   0  0  0  0  0  0  0  0  0  0  0  0
  -24.4014   33.4303  -15.9613 C   0  0  0  0  0  0  0  0  0  0  0  0
  -23.3835   31.2495  -16.0115 C   0  0  0  0  0  0  0  0  0  0  0  0
  -24.4950   32.0539  -15.7730 C   0  0  0  0  0  0  0  0  0  0  0  0
  -16.8113   35.1030  -15.4480 H   0  0  0  0  0  0  0  0  0  0  0  0
  -18.0384   36.3291  -14.9694 H   0  0  0  0  0  0  0  0  0  0  0  0
  -16.4095   36.8432  -15.4918 H   0  0  0  0  0  0  0  0  0  0  0  0
  -19.2217   35.6891  -14.8742 H   0  0  0  0  0  0  0  0  0  0  0  0
  -20.7193   36.4340  -15.5144 H   0  0  0  0  0  0  0  0  0  0  0  0
  -20.7657   34.8744  -14.6193 H   0  0  0  0  0  0  0  0  0  0  0  0
  -21.3245   31.1771  -16.6247 H   0  0  0  0  0  0  0  0  0  0  0  0
  -25.2674   34.0681  -15.8122 H   0  0  0  0  0  0  0  0  0  0  0  0
  -23.4552   30.1705  -15.8936 H   0  0  0  0  0  0  0  0  0  0  0  0
  -25.4362   31.6069  -15.4629 H   0  0  0  0  0  0  0  0  0  0  0  0
  1  2  2  0  0  0  0
  1  3  2  0  0  0  0
  1  4  1  0  0  0  0
  1  5  1  0  0  0  0
  4  6  2  0  0  0  0
  4  7  1  0  0  0  0
  5 18  1  0  0  0  0
  5 19  1  0  0  0  0
  5 20  1  0  0  0  0
  6  8  1  0  0  0  0
  7  9  1  0  0  0  0
  7 10  1  0  0  0  0
  8  9  2  0  0  0  0
  9 11  1  0  0  0  0
 10 21  1  0  0  0  0
 10 22  1  0  0  0  0
 10 23  1  0  0  0  0
 11 12  2  0  0  0  0
 11 13  1  0  0  0  0
 12 14  1  0  0  0  0
 12 15  1  0  0  0  0
 13 16  2  0  0  0  0
 13 24  1  0  0  0  0
 15 17  2  0  0  0  0
 15 25  1  0  0  0  0
 16 17  1  0  0  0  0
 16 26  1  0  0  0  0
 17 27  1  0  0  0  0
M  END
>  <Column 1>
Cn1c(-c2ccccc2F)nnc1S(C)(=O)=O ZINC000000024661

>  <Total Molweight>
255.272

>  <cLogP>
0.5502

>  <cLogS>
-2.874

>  <H-Acceptors>
5

>  <H-Donors>
0

>  <Total Surface Area>
179.19

>  <MMFF94 Energy>
44.545

> <Gold.Version>
5.8.1

> <Gold.Id.Protein>
ID|2FQT|mol2

> <Gold.PLP.Fitness>
49.3560

> <Gold.PLP.PLP>
-42.1442

> <Gold.PLP.part.hbond>
-3.0000

> <Gold.PLP.part.metal>
0.0000

> <Gold.PLP.part.buried>
-6.0404

> <Gold.PLP.part.nonpolar>
-33.5684

> <Gold.PLP.part.repulsive>
0.1316

> <Gold.PLP.ligand.clash>
0.0000

> <Gold.PLP.ligand.torsion>
2.0652

> <Gold.PLP.Chemscore.Hbond>
2.9920

> <Gold.PLP.Chemscore.CHOScore>
0.0000

> <Gold.PLP.Chemscore.Metal>
0.0000

> <Gold.Chemscore.Hbonds>
donor molecule, donor type, donor heavy atom, donor atom, acceptor molecule, acceptor atom, score
      P1  H  1223  2650       L1     3  0.99
      P1  H  1912  4380       L1     8  1.00
      P1  H  1230  2756       L1     3  1.00

> <Gold.PLP.Chemscore.Internal.Correction>
2.3662

> <Gold.Protein.RotatedTorsions>
[ 3412  950  949  948 ] final   94.22 input   60.00 | X-H torsion
[ 3476 1244 1243 1240 ] final -171.33 input   60.00 | X-H torsion
[ 2649 1223 1224 1225 ] final  -93.05 input   60.00 | X-H torsion
[ 4380 1912 1911 1909 ] final  102.50 input   60.00 | X-H torsion
[ 3084  621  620  617 ] final -171.88 input   60.00 | X-H torsion

> <Gold.Protein.ActiveResidues>
 HIS54   GLU57   HIS58   ALA61   PHE62   ILE64   ARG65   ASP75   ILE76   ILE77  
 ASP78   ILE79   SER80   PRO81   ILE118  PRO119  ALA120  ALA121  ASN122  LYS124 
 GLN125  CYS126  GLY127  CO701   VAL4    GLU5    SER6    PHE7    GLU8    LEU9   
 HIS11   ARG20   HIS21   CYS22   GLY23   VAL24   HIS25   LYS35   ARG39   MET82  
 GLY83   CYS84   TYR89  

> <Gold.Protein.RotatedAtoms>
  -21.4563   37.3239  -16.6424 H   0  0  0  0  0  0  0  0  0  0  0  0  # atno 2649 bound_to 1223
  -20.2428   38.0186  -17.5323 H   0  0  0  0  0  0  0  0  0  0  0  0  # atno 2650 bound_to 1223
  -18.4388   27.3271  -13.8541 H   0  0  0  0  0  0  0  0  0  0  0  0  # atno 3084 bound_to 621 
  -27.7777   37.6368  -28.8246 H   0  0  0  0  0  0  0  0  0  0  0  0  # atno 3412 bound_to 950 
  -28.1233   39.1553  -29.3920 H   0  0  0  0  0  0  0  0  0  0  0  0  # atno 3413 bound_to 950 
  -28.9295   38.5606  -28.0715 H   0  0  0  0  0  0  0  0  0  0  0  0  # atno 3414 bound_to 950 
  -23.7441   31.7103  -19.6735 H   0  0  0  0  0  0  0  0  0  0  0  0  # atno 3476 bound_to 1244
  -20.0984   31.9310  -19.0986 H   0  0  0  0  0  0  0  0  0  0  0  0  # atno 4380 bound_to 1912
  -22.9568   31.7116  -21.0976 LP  0  0  0  0  0  0  0  0  0  0  0  0  # atno 4866 bound_to 1244
  -24.2917   32.6308  -20.8986 LP  0  0  0  0  0  0  0  0  0  0  0  0  # atno 4867 bound_to 1244
  -20.9200   38.8352  -16.2748 LP  0  0  0  0  0  0  0  0  0  0  0  0  # atno 4874 bound_to 1223
  -21.2557   30.8268  -19.3975 LP  0  0  0  0  0  0  0  0  0  0  0  0  # atno 4875 bound_to 1912
  -20.0837   31.1044  -20.5002 LP  0  0  0  0  0  0  0  0  0  0  0  0  # atno 4876 bound_to 1912
  -18.3789   28.6416  -12.8966 LP  0  0  0  0  0  0  0  0  0  0  0  0  # atno 4881 bound_to 621 
  -19.7672   28.2469  -13.6606 LP  0  0  0  0  0  0  0  0  0  0  0  0  # atno 4882 bound_to 621 

$$$$
Compound 123|Decoys_protonated|sdf|123|dock3
  -GOLD-   6122416193D 1   1.00000     0.00000

 23 24  0  0  0  0  0  0  0  0  1 V2000
  -19.8959   34.5019  -18.6810 O   0  0  0  0  0  0  0  0  0  0  0  0
  -20.0516   34.1793  -17.5068 C   0  0  0  0  0  0  0  0  0  0  0  0
  -19.8670   35.0713  -16.4819 N   0  0  0  0  0  0  0  0  0  0  0  0
  -20.3932   32.9033  -17.1706 N   0  0  0  0  0  0  0  0  0  0  0  0
  -20.0112   34.7204  -15.1255 N   0  0  0  0  0  0  0  0  0  0  0  0
  -20.6613   32.4976  -15.8082 C   0  0  0  0  0  0  0  0  0  0  0  0
  -19.6712   35.6719  -14.1532 C   0  0  0  0  0  0  0  0  0  0  0  0
  -19.8485   33.3073  -14.7984 C   0  0  0  0  0  0  0  0  0  0  0  0
  -19.6440   36.9812  -14.5005 N   0  0  0  0  0  0  0  0  0  0  0  0
  -19.3297   35.2804  -12.8549 C   0  0  0  0  0  0  0  0  0  0  0  0
  -19.3128   37.8949  -13.5600 C   0  0  0  0  0  0  0  0  0  0  0  0
  -18.9876   36.2385  -11.9005 C   0  0  0  0  0  0  0  0  0  0  0  0
  -18.9834   37.5768  -12.2571 C   0  0  0  0  0  0  0  0  0  0  0  0
  -19.5237   35.9931  -16.7194 H   0  0  0  0  0  0  0  0  0  0  0  0
  -20.5524   32.2748  -17.9460 H   0  0  0  0  0  0  0  0  0  0  0  0
  -20.4420   31.4293  -15.7206 H   0  0  0  0  0  0  0  0  0  0  0  0
  -21.7346   32.6431  -15.6406 H   0  0  0  0  0  0  0  0  0  0  0  0
  -18.7879   33.0324  -14.8564 H   0  0  0  0  0  0  0  0  0  0  0  0
  -20.2133   33.0739  -13.7912 H   0  0  0  0  0  0  0  0  0  0  0  0
  -19.2950   34.2311  -12.5822 H   0  0  0  0  0  0  0  0  0  0  0  0
  -19.3193   38.9269  -13.8988 H   0  0  0  0  0  0  0  0  0  0  0  0
  -18.7192   35.9352  -10.8927 H   0  0  0  0  0  0  0  0  0  0  0  0
  -18.7224   38.3498  -11.5437 H   0  0  0  0  0  0  0  0  0  0  0  0
  1  2  2  0  0  0  0
  2  3  1  0  0  0  0
  2  4  1  0  0  0  0
  3  5  1  0  0  0  0
  3 14  1  0  0  0  0
  4  6  1  0  0  0  0
  4 15  1  0  0  0  0
  5  7  1  0  0  0  0
  5  8  1  0  0  0  0
  6  8  1  0  0  0  0
  6 16  1  0  0  0  0
  6 17  1  0  0  0  0
  7  9  2  0  0  0  0
  7 10  1  0  0  0  0
  8 18  1  0  0  0  0
  8 19  1  0  0  0  0
  9 11  1  0  0  0  0
 10 12  2  0  0  0  0
 10 20  1  0  0  0  0
 11 13  2  0  0  0  0
 11 21  1  0  0  0  0
 12 13  1  0  0  0  0
 12 22  1  0  0  0  0
 13 23  1  0  0  0  0
M  END
>  <Column 1>
O=C1NCCN(c2ccccn2)N1 ZINC000000025263

>  <Total Molweight>
178.194

>  <cLogP>
-0.5307

>  <cLogS>
-1.453

>  <H-Acceptors>
5

>  <H-Donors>
2

>  <Total Surface Area>
137.01

>  <MMFF94 Energy>
1.1128

> <Gold.Version>
5.8.1

> <Gold.Id.Protein>
ID|2FQT|mol2

> <Gold.PLP.Fitness>
37.1144

> <Gold.PLP.PLP>
-31.6574

> <Gold.PLP.part.hbond>
-2.8139

> <Gold.PLP.part.metal>
0.0000

> <Gold.PLP.part.buried>
-4.8088

> <Gold.PLP.part.nonpolar>
-24.4008

> <Gold.PLP.part.repulsive>
0.2875

> <Gold.PLP.ligand.clash>
0.0000

> <Gold.PLP.ligand.torsion>
0.1211

> <Gold.PLP.Chemscore.Hbond>
1.8320

> <Gold.PLP.Chemscore.CHOScore>
0.0000

> <Gold.PLP.Chemscore.Metal>
0.0000

> <Gold.Chemscore.Hbonds>
donor molecule, donor type, donor heavy atom, donor atom, acceptor molecule, acceptor atom, score
      L1  H     4    15       P1  1912  1.00
      P1  H  1239  3336       L1     1  0.83

> <Gold.PLP.Chemscore.Internal.Correction>
0.2031

> <Gold.Protein.RotatedTorsions>
[ 3412  950  949  948 ] final -113.57 input   60.00 | X-H torsion
[ 3476 1244 1243 1240 ] final -151.02 input   60.00 | X-H torsion
[ 2649 1223 1224 1225 ] final  -24.75 input   60.00 | X-H torsion
[ 4380 1912 1911 1909 ] final  -70.61 input   60.00 | X-H torsion
[ 3084  621  620  617 ] final   64.78 input   60.00 | X-H torsion

> <Gold.Protein.ActiveResidues>
 HIS54   GLU57   HIS58   ALA61   PHE62   ILE64   ARG65   ASP75   ILE76   ILE77  
 ASP78   ILE79   SER80   PRO81   ILE118  PRO119  ALA120  ALA121  ASN122  LYS124 
 GLN125  CYS126  GLY127  CO701   VAL4    GLU5    SER6    PHE7    GLU8    LEU9   
 HIS11   ARG20   HIS21   CYS22   GLY23   VAL24   HIS25   LYS35   ARG39   MET82  
 GLY83   CYS84   TYR89  

> <Gold.Protein.RotatedAtoms>
  -20.7263   37.3461  -17.4303 H   0  0  0  0  0  0  0  0  0  0  0  0  # atno 2649 bound_to 1223
  -20.3503   38.8621  -16.8757 H   0  0  0  0  0  0  0  0  0  0  0  0  # atno 2650 bound_to 1223
  -18.4283   28.6662  -12.8932 H   0  0  0  0  0  0  0  0  0  0  0  0  # atno 3084 bound_to 621 
  -28.5013   39.3312  -29.0634 H   0  0  0  0  0  0  0  0  0  0  0  0  # atno 3412 bound_to 950 
  -28.7228   38.0765  -28.0033 H   0  0  0  0  0  0  0  0  0  0  0  0  # atno 3413 bound_to 950 
  -27.6065   37.9451  -29.2214 H   0  0  0  0  0  0  0  0  0  0  0  0  # atno 3414 bound_to 950 
  -24.0048   31.9124  -19.6887 H   0  0  0  0  0  0  0  0  0  0  0  0  # atno 3476 bound_to 1244
  -20.9344   30.6301  -20.1483 H   0  0  0  0  0  0  0  0  0  0  0  0  # atno 4380 bound_to 1912
  -22.8914   31.5452  -20.8172 LP  0  0  0  0  0  0  0  0  0  0  0  0  # atno 4866 bound_to 1244
  -24.0945   32.5936  -21.1637 LP  0  0  0  0  0  0  0  0  0  0  0  0  # atno 4867 bound_to 1244
  -21.5333   37.9823  -16.1455 LP  0  0  0  0  0  0  0  0  0  0  0  0  # atno 4874 bound_to 1223
  -19.7066   31.6911  -20.0267 LP  0  0  0  0  0  0  0  0  0  0  0  0  # atno 4875 bound_to 1912
  -20.7909   31.5502  -18.8138 LP  0  0  0  0  0  0  0  0  0  0  0  0  # atno 4876 bound_to 1912
  -19.7675   28.2022  -13.6927 LP  0  0  0  0  0  0  0  0  0  0  0  0  # atno 4881 bound_to 621 
  -18.3891   27.3378  -13.8322 LP  0  0  0  0  0  0  0  0  0  0  0  0  # atno 4882 bound_to 621 

$$$$
Compound 124|Decoys_protonated|sdf|124|dock5
  -GOLD-   6122416193D 1   1.00000     0.00000

 24 25  0  0  0  0  0  0  0  0  1 V2000
  -19.9233   35.7295  -18.0561 O   0  0  0  0  0  0  0  0  0  0  0  0
  -20.1039   34.7901  -17.2868 C   0  0  0  0  0  0  0  0  0  0  0  0
  -21.2906   34.1032  -17.2435 N   0  0  0  0  0  0  0  0  0  0  0  0
  -19.1103   34.3708  -16.4523 N   0  0  0  0  0  0  0  0  0  0  0  0
  -21.5169   32.9988  -16.4002 N   0  0  0  0  0  0  0  0  0  0  0  0
  -19.3087   33.3327  -15.4669 C   0  0  0  0  0  0  0  0  0  0  0  0
  -22.7839   32.4124  -16.4648 C   0  0  0  0  0  0  0  0  0  0  0  0
  -20.3286   32.2912  -15.9302 C   0  0  0  0  0  0  0  0  0  0  0  0
  -22.9890   31.2103  -17.1664 C   0  0  0  0  0  0  0  0  0  0  0  0
  -23.9083   32.9931  -15.8566 C   0  0  0  0  0  0  0  0  0  0  0  0
  -24.2501   30.6098  -17.2462 C   0  0  0  0  0  0  0  0  0  0  0  0
  -25.1728   32.3963  -15.9308 C   0  0  0  0  0  0  0  0  0  0  0  0
  -25.3428   31.2032  -16.6248 C   0  0  0  0  0  0  0  0  0  0  0  0
  -22.0074   34.3539  -17.9140 H   0  0  0  0  0  0  0  0  0  0  0  0
  -18.2592   34.9152  -16.4807 H   0  0  0  0  0  0  0  0  0  0  0  0
  -18.3403   32.8670  -15.2609 H   0  0  0  0  0  0  0  0  0  0  0  0
  -19.6550   33.8263  -14.5515 H   0  0  0  0  0  0  0  0  0  0  0  0
  -19.9136   31.6855  -16.7449 H   0  0  0  0  0  0  0  0  0  0  0  0
  -20.5575   31.6301  -15.0865 H   0  0  0  0  0  0  0  0  0  0  0  0
  -22.1621   30.7393  -17.6934 H   0  0  0  0  0  0  0  0  0  0  0  0
  -23.8181   33.9150  -15.2897 H   0  0  0  0  0  0  0  0  0  0  0  0
  -24.3746   29.6838  -17.8016 H   0  0  0  0  0  0  0  0  0  0  0  0
  -26.0223   32.8658  -15.4415 H   0  0  0  0  0  0  0  0  0  0  0  0
  -26.3240   30.7396  -16.6845 H   0  0  0  0  0  0  0  0  0  0  0  0
  1  2  2  0  0  0  0
  2  3  1  0  0  0  0
  2  4  1  0  0  0  0
  3  5  1  0  0  0  0
  3 14  1  0  0  0  0
  4  6  1  0  0  0  0
  4 15  1  0  0  0  0
  5  7  1  0  0  0  0
  5  8  1  0  0  0  0
  6  8  1  0  0  0  0
  6 16  1  0  0  0  0
  6 17  1  0  0  0  0
  7  9  2  0  0  0  0
  7 10  1  0  0  0  0
  8 18  1  0  0  0  0
  8 19  1  0  0  0  0
  9 11  1  0  0  0  0
  9 20  1  0  0  0  0
 10 12  2  0  0  0  0
 10 21  1  0  0  0  0
 11 13  2  0  0  0  0
 11 22  1  0  0  0  0
 12 13  1  0  0  0  0
 12 23  1  0  0  0  0
 13 24  1  0  0  0  0
M  END
>  <Column 1>
O=C1NCCN(c2ccccc2)N1 ZINC000000025267

>  <Total Molweight>
177.206

>  <cLogP>
0.1188

>  <cLogS>
-1.723

>  <H-Acceptors>
4

>  <H-Donors>
2

>  <Total Surface Area>
138.25

>  <MMFF94 Energy>
19.852

> <Gold.Version>
5.8.1

> <Gold.Id.Protein>
ID|2FQT|mol2

> <Gold.PLP.Fitness>
39.0070

> <Gold.PLP.PLP>
-35.0632

> <Gold.PLP.part.hbond>
-3.0000

> <Gold.PLP.part.metal>
0.0000

> <Gold.PLP.part.buried>
-2.1120

> <Gold.PLP.part.nonpolar>
-29.7089

> <Gold.PLP.part.repulsive>
0.2421

> <Gold.PLP.ligand.clash>
0.0000

> <Gold.PLP.ligand.torsion>
1.2052

> <Gold.PLP.Chemscore.Hbond>
2.0778

> <Gold.PLP.Chemscore.CHOScore>
0.0000

> <Gold.PLP.Chemscore.Metal>
0.0000

> <Gold.Chemscore.Hbonds>
donor molecule, donor type, donor heavy atom, donor atom, acceptor molecule, acceptor atom, score
      P1  H  1223  2649       L1     1  1.00
      P1  H  1230  2756       L1     1  0.09
      P1  H  1239  3336       L1     1  0.99

> <Gold.PLP.Chemscore.Internal.Correction>
0.1207

> <Gold.Protein.RotatedTorsions>
[ 3412  950  949  948 ] final  153.44 input   60.00 | X-H torsion
[ 3476 1244 1243 1240 ] final  178.74 input   60.00 | X-H torsion
[ 2649 1223 1224 1225 ] final  -28.84 input   60.00 | X-H torsion
[ 4380 1912 1911 1909 ] final  -99.16 input   60.00 | X-H torsion
[ 3084  621  620  617 ] final   46.24 input   60.00 | X-H torsion

> <Gold.Protein.ActiveResidues>
 HIS54   GLU57   HIS58   ALA61   PHE62   ILE64   ARG65   ASP75   ILE76   ILE77  
 ASP78   ILE79   SER80   PRO81   ILE118  PRO119  ALA120  ALA121  ASN122  LYS124 
 GLN125  CYS126  GLY127  CO701   VAL4    GLU5    SER6    PHE7    GLU8    LEU9   
 HIS11   ARG20   HIS21   CYS22   GLY23   VAL24   HIS25   LYS35   ARG39   MET82  
 GLY83   CYS84   TYR89  

> <Gold.Protein.RotatedAtoms>
  -20.7756   37.3116  -17.3982 H   0  0  0  0  0  0  0  0  0  0  0  0  # atno 2649 bound_to 1223
  -20.3181   38.8340  -16.9289 H   0  0  0  0  0  0  0  0  0  0  0  0  # atno 2650 bound_to 1223
  -18.7020   28.7928  -12.8977 H   0  0  0  0  0  0  0  0  0  0  0  0  # atno 3084 bound_to 621 
  -27.6215   38.3292  -29.4493 H   0  0  0  0  0  0  0  0  0  0  0  0  # atno 3412 bound_to 950 
  -28.7696   39.2697  -28.7112 H   0  0  0  0  0  0  0  0  0  0  0  0  # atno 3413 bound_to 950 
  -28.4395   37.7539  -28.1275 H   0  0  0  0  0  0  0  0  0  0  0  0  # atno 3414 bound_to 950 
  -23.6109   31.6240  -19.7064 H   0  0  0  0  0  0  0  0  0  0  0  0  # atno 3476 bound_to 1244
  -20.5818   30.7487  -20.4217 H   0  0  0  0  0  0  0  0  0  0  0  0  # atno 4380 bound_to 1912
  -23.0217   31.8082  -21.2120 LP  0  0  0  0  0  0  0  0  0  0  0  0  # atno 4866 bound_to 1244
  -24.3609   32.6210  -20.7511 LP  0  0  0  0  0  0  0  0  0  0  0  0  # atno 4867 bound_to 1244
  -21.5164   38.0439  -16.1247 LP  0  0  0  0  0  0  0  0  0  0  0  0  # atno 4874 bound_to 1223
  -19.7596   31.8970  -19.6132 LP  0  0  0  0  0  0  0  0  0  0  0  0  # atno 4875 bound_to 1912
  -21.0930   31.2249  -18.9520 LP  0  0  0  0  0  0  0  0  0  0  0  0  # atno 4876 bound_to 1912
  -19.7139   27.9505  -13.8541 LP  0  0  0  0  0  0  0  0  0  0  0  0  # atno 4881 bound_to 621 
  -18.1671   27.4620  -13.6664 LP  0  0  0  0  0  0  0  0  0  0  0  0  # atno 4882 bound_to 621 

$$$$
Compound 125|Decoys_protonated|sdf|125|dock1
  -GOLD-   6122416193D 1   1.00000     0.00000

 22 23  0  0  0  0  0  0  0  0  1 V2000
  -21.1703   35.1765  -16.3920 O   0  0  0  0  0  0  0  0  0  0  0  0
  -21.3791   33.9809  -16.2246 C   0  0  0  0  0  0  0  0  0  0  0  0
  -20.5537   33.1779  -15.4994 N   0  0  0  0  0  0  0  0  0  0  0  0
  -22.5534   33.3193  -16.8025 C   0  0  0  0  0  0  0  0  0  0  0  0
  -20.7960   31.8524  -15.3222 C   0  0  0  0  0  0  0  0  0  0  0  0
  -22.7150   32.0104  -16.5613 C   0  0  0  0  0  0  0  0  0  0  0  0
  -21.8287   31.2567  -15.8251 N   0  0  0  0  0  0  0  0  0  0  0  0
  -19.9017   31.1610  -14.5869 N   0  0  0  0  0  0  0  0  0  0  0  0
  -23.8831   31.3028  -17.1385 C   0  0  0  0  0  0  0  0  0  0  0  0
  -23.8148   29.9246  -17.3650 C   0  0  0  0  0  0  0  0  0  0  0  0
  -25.0808   31.9606  -17.4376 C   0  0  0  0  0  0  0  0  0  0  0  0
  -24.9188   29.2779  -17.8950 C   0  0  0  0  0  0  0  0  0  0  0  0
  -26.1315   31.2254  -17.9643 C   0  0  0  0  0  0  0  0  0  0  0  0
  -26.0752   29.8996  -18.2064 N   0  0  0  0  0  0  0  0  0  0  0  0
  -19.7431   33.6152  -15.0965 H   0  0  0  0  0  0  0  0  0  0  0  0
  -23.2171   33.9266  -17.4009 H   0  0  0  0  0  0  0  0  0  0  0  0
  -19.1101   31.6710  -14.2153 H   0  0  0  0  0  0  0  0  0  0  0  0
  -19.9670   30.1731  -14.4014 H   0  0  0  0  0  0  0  0  0  0  0  0
  -22.9160   29.3627  -17.1321 H   0  0  0  0  0  0  0  0  0  0  0  0
  -25.2121   33.0211  -17.2537 H   0  0  0  0  0  0  0  0  0  0  0  0
  -24.9005   28.2091  -18.0870 H   0  0  0  0  0  0  0  0  0  0  0  0
  -27.0778   31.6995  -18.2086 H   0  0  0  0  0  0  0  0  0  0  0  0
  1  2  2  0  0  0  0
  2  3  1  0  0  0  0
  2  4  1  0  0  0  0
  3  5  1  0  0  0  0
  3 15  1  0  0  0  0
  4  6  2  0  0  0  0
  4 16  1  0  0  0  0
  5  7  2  0  0  0  0
  5  8  1  0  0  0  0
  6  9  1  0  0  0  0
  6  7  1  0  0  0  0
  8 17  1  0  0  0  0
  8 18  1  0  0  0  0
  9 10  2  0  0  0  0
  9 11  1  0  0  0  0
 10 12  1  0  0  0  0
 10 19  1  0  0  0  0
 11 13  2  0  0  0  0
 11 20  1  0  0  0  0
 12 14  2  0  0  0  0
 12 21  1  0  0  0  0
 13 14  1  0  0  0  0
 13 22  1  0  0  0  0
M  END
>  <Column 1>
Nc1nc(-c2ccncc2)cc(=O)[nH]1 ZINC000000025651

>  <Total Molweight>
188.19

>  <cLogP>
-0.5698

>  <cLogS>
-1.683

>  <H-Acceptors>
5

>  <H-Donors>
2

>  <Total Surface Area>
143.93

>  <MMFF94 Energy>
-122.04

> <Gold.Version>
5.8.1

> <Gold.Id.Protein>
ID|2FQT|mol2

> <Gold.PLP.Fitness>
42.5826

> <Gold.PLP.PLP>
-31.4626

> <Gold.PLP.part.hbond>
-3.0000

> <Gold.PLP.part.metal>
-0.9622

> <Gold.PLP.part.buried>
-4.4570

> <Gold.PLP.part.nonpolar>
-23.9050

> <Gold.PLP.part.repulsive>
0.3040

> <Gold.PLP.ligand.clash>
0.0000

> <Gold.PLP.ligand.torsion>
0.2771

> <Gold.PLP.Chemscore.Hbond>
1.2675

> <Gold.PLP.Chemscore.CHOScore>
0.7435

> <Gold.PLP.Chemscore.Metal>
0.9399

> <Gold.Chemscore.Hbonds>
donor molecule, donor type, donor heavy atom, donor atom, acceptor molecule, acceptor atom, score
      L1  H     8    17       P1   606  0.27
      P1  H  1223  2650       L1     1  1.00
      L1  C    13    22       P1   437  0.74
      P1  M  1222  1222       L1    14  0.94

> <Gold.PLP.Chemscore.Internal.Correction>
0.0015

> <Gold.Protein.RotatedTorsions>
[ 3412  950  949  948 ] final  -97.76 input   60.00 | X-H torsion
[ 3476 1244 1243 1240 ] final -153.32 input   60.00 | X-H torsion
[ 2649 1223 1224 1225 ] final  164.12 input   60.00 | X-H torsion
[ 4380 1912 1911 1909 ] final   24.08 input   60.00 | X-H torsion
[ 3084  621  620  617 ] final -107.89 input   60.00 | X-H torsion

> <Gold.Protein.ActiveResidues>
 HIS54   GLU57   HIS58   ALA61   PHE62   ILE64   ARG65   ASP75   ILE76   ILE77  
 ASP78   ILE79   SER80   PRO81   ILE118  PRO119  ALA120  ALA121  ASN122  LYS124 
 GLN125  CYS126  GLY127  CO701   VAL4    GLU5    SER6    PHE7    GLU8    LEU9   
 HIS11   ARG20   HIS21   CYS22   GLY23   VAL24   HIS25   LYS35   ARG39   MET82  
 GLY83   CYS84   TYR89  

> <Gold.Protein.RotatedAtoms>
  -21.1221   38.6915  -16.1364 H   0  0  0  0  0  0  0  0  0  0  0  0  # atno 2649 bound_to 1223
  -21.3153   37.2160  -16.8662 H   0  0  0  0  0  0  0  0  0  0  0  0  # atno 2650 bound_to 1223
  -19.3912   27.5405  -14.0322 H   0  0  0  0  0  0  0  0  0  0  0  0  # atno 3084 bound_to 621 
  -28.6684   39.3186  -28.8604 H   0  0  0  0  0  0  0  0  0  0  0  0  # atno 3412 bound_to 950 
  -28.5652   37.8726  -28.0568 H   0  0  0  0  0  0  0  0  0  0  0  0  # atno 3413 bound_to 950 
  -27.5970   38.1616  -29.3708 H   0  0  0  0  0  0  0  0  0  0  0  0  # atno 3414 bound_to 950 
  -23.9768   31.8884  -19.6814 H   0  0  0  0  0  0  0  0  0  0  0  0  # atno 3476 bound_to 1244
  -21.0597   31.2610  -18.9308 H   0  0  0  0  0  0  0  0  0  0  0  0  # atno 4380 bound_to 1912
  -22.8940   31.5614  -20.8512 LP  0  0  0  0  0  0  0  0  0  0  0  0  # atno 4866 bound_to 1244
  -24.1200   32.6016  -21.1370 LP  0  0  0  0  0  0  0  0  0  0  0  0  # atno 4867 bound_to 1244
  -20.1926   38.2785  -17.4296 LP  0  0  0  0  0  0  0  0  0  0  0  0  # atno 4874 bound_to 1223
  -20.6272   30.7256  -20.4053 LP  0  0  0  0  0  0  0  0  0  0  0  0  # atno 4875 bound_to 1912
  -19.7442   31.8804  -19.6614 LP  0  0  0  0  0  0  0  0  0  0  0  0  # atno 4876 bound_to 1912
  -17.9581   27.8417  -13.3224 LP  0  0  0  0  0  0  0  0  0  0  0  0  # atno 4881 bound_to 621 
  -19.2288   28.8320  -13.0555 LP  0  0  0  0  0  0  0  0  0  0  0  0  # atno 4882 bound_to 621 

$$$$
Compound 126|Decoys_protonated|sdf|126|dock2
  -GOLD-   6122416193D 1   1.00000     0.00000

 19 20  0  0  0  0  0  0  0  0  1 V2000
  -24.6438   33.1395  -16.4272 S   0  0  0  0  0  0  0  0  0  0  0  0
  -23.2500   34.2366  -16.8134 C   0  0  0  0  0  0  0  0  0  0  0  0
  -23.9711   32.4006  -14.9170 C   0  0  0  0  0  0  0  0  0  0  0  0
  -21.9050   33.6187  -16.5886 C   0  0  0  0  0  0  0  0  0  0  0  0
  -22.6681   31.6665  -15.2116 C   0  0  0  0  0  0  0  0  0  0  0  0
  -20.7691   34.3529  -17.1983 C   0  0  0  0  0  0  0  0  0  0  0  0
  -21.6092   32.4917  -15.9114 C   0  0  0  0  0  0  0  0  0  0  0  0
  -20.9176   35.4081  -17.8048 O   0  0  0  0  0  0  0  0  0  0  0  0
  -19.5422   33.7872  -17.0336 N   0  0  0  0  0  0  0  0  0  0  0  0
  -20.3337   31.9874  -15.7719 N   0  0  0  0  0  0  0  0  0  0  0  0
  -19.3732   32.6378  -16.3301 C   0  0  0  0  0  0  0  0  0  0  0  0
  -23.3477   35.1440  -16.2076 H   0  0  0  0  0  0  0  0  0  0  0  0
  -23.3674   34.5253  -17.8634 H   0  0  0  0  0  0  0  0  0  0  0  0
  -23.8204   33.1875  -14.1696 H   0  0  0  0  0  0  0  0  0  0  0  0
  -24.7085   31.7009  -14.5106 H   0  0  0  0  0  0  0  0  0  0  0  0
  -22.2676   31.3087  -14.2540 H   0  0  0  0  0  0  0  0  0  0  0  0
  -22.8694   30.7716  -15.8154 H   0  0  0  0  0  0  0  0  0  0  0  0
  -18.7590   34.2692  -17.4483 H   0  0  0  0  0  0  0  0  0  0  0  0
  -18.3288   32.2946  -16.2670 H   0  0  0  0  0  0  0  0  0  0  0  0
  1  2  1  0  0  0  0
  1  3  1  0  0  0  0
  2  4  1  0  0  0  0
  2 12  1  0  0  0  0
  2 13  1  0  0  0  0
  3  5  1  0  0  0  0
  3 14  1  0  0  0  0
  3 15  1  0  0  0  0
  4  6  1  0  0  0  0
  4  7  2  0  0  0  0
  5  7  1  0  0  0  0
  5 16  1  0  0  0  0
  5 17  1  0  0  0  0
  6  8  2  0  0  0  0
  6  9  1  0  0  0  0
  7 10  1  0  0  0  0
  9 11  1  0  0  0  0
  9 18  1  0  0  0  0
 10 11  2  0  0  0  0
 11 19  1  0  0  0  0
M  END
>  <Column 1>
O=c1[nH]cnc2c1CSCC2 ZINC000000025972

>  <Total Molweight>
168.22

>  <cLogP>
-0.3647

>  <cLogS>
-2.101

>  <H-Acceptors>
3

>  <H-Donors>
1

>  <Total Surface Area>
122.16

>  <MMFF94 Energy>
-54.842

> <Gold.Version>
5.8.1

> <Gold.Id.Protein>
ID|2FQT|mol2

> <Gold.PLP.Fitness>
36.8708

> <Gold.PLP.PLP>
-27.8741

> <Gold.PLP.part.hbond>
-3.0000

> <Gold.PLP.part.metal>
0.0000

> <Gold.PLP.part.buried>
-5.2019

> <Gold.PLP.part.nonpolar>
-21.1031

> <Gold.PLP.part.repulsive>
0.2555

> <Gold.PLP.ligand.clash>
0.0000

> <Gold.PLP.ligand.torsion>
0.0000

> <Gold.PLP.Chemscore.Hbond>
2.0000

> <Gold.PLP.Chemscore.CHOScore>
0.9989

> <Gold.PLP.Chemscore.Metal>
0.0000

> <Gold.Chemscore.Hbonds>
donor molecule, donor type, donor heavy atom, donor atom, acceptor molecule, acceptor atom, score
      P1  H  1223  2650       L1     8  1.00
      P1  H  1239  3336       L1     8  1.00
      L1  C    11    19       P1   606  1.00

> <Gold.PLP.Chemscore.Internal.Correction>
0.0000

> <Gold.Protein.RotatedTorsions>
[ 3412  950  949  948 ] final  -55.47 input   60.00 | X-H torsion
[ 3476 1244 1243 1240 ] final  -41.66 input   60.00 | X-H torsion
[ 2649 1223 1224 1225 ] final -168.24 input   60.00 | X-H torsion
[ 4380 1912 1911 1909 ] final   49.09 input   60.00 | X-H torsion
[ 3084  621  620  617 ] final   48.18 input   60.00 | X-H torsion

> <Gold.Protein.ActiveResidues>
 HIS54   GLU57   HIS58   ALA61   PHE62   ILE64   ARG65   ASP75   ILE76   ILE77  
 ASP78   ILE79   SER80   PRO81   ILE118  PRO119  ALA120  ALA121  ASN122  LYS124 
 GLN125  CYS126  GLY127  CO701   VAL4    GLU5    SER6    PHE7    GLU8    LEU9   
 HIS11   ARG20   HIS21   CYS22   GLY23   VAL24   HIS25   LYS35   ARG39   MET82  
 GLY83   CYS84   TYR89  

> <Gold.Protein.RotatedAtoms>
  -21.3979   38.3348  -16.0611 H   0  0  0  0  0  0  0  0  0  0  0  0  # atno 2649 bound_to 1223
  -21.0122   37.2023  -17.2081 H   0  0  0  0  0  0  0  0  0  0  0  0  # atno 2650 bound_to 1223
  -18.6721   28.7829  -12.8944 H   0  0  0  0  0  0  0  0  0  0  0  0  # atno 3084 bound_to 621 
  -28.9426   38.9805  -28.3245 H   0  0  0  0  0  0  0  0  0  0  0  0  # atno 3412 bound_to 950 
  -28.0738   37.5736  -28.4388 H   0  0  0  0  0  0  0  0  0  0  0  0  # atno 3413 bound_to 950 
  -27.8141   38.7987  -29.5247 H   0  0  0  0  0  0  0  0  0  0  0  0  # atno 3414 bound_to 950 
  -24.2011   32.6200  -21.0282 H   0  0  0  0  0  0  0  0  0  0  0  0  # atno 3476 bound_to 1244
  -20.7911   31.5434  -18.8192 H   0  0  0  0  0  0  0  0  0  0  0  0  # atno 4380 bound_to 1912
  -23.8743   31.7999  -19.6613 LP  0  0  0  0  0  0  0  0  0  0  0  0  # atno 4866 bound_to 1244
  -22.9139   31.6262  -20.9705 LP  0  0  0  0  0  0  0  0  0  0  0  0  # atno 4867 bound_to 1244
  -20.2195   38.6434  -17.1670 LP  0  0  0  0  0  0  0  0  0  0  0  0  # atno 4874 bound_to 1223
  -20.9357   30.6276  -20.1565 LP  0  0  0  0  0  0  0  0  0  0  0  0  # atno 4875 bound_to 1912
  -19.7062   31.6939  -20.0226 LP  0  0  0  0  0  0  0  0  0  0  0  0  # atno 4876 bound_to 1912
  -19.7238   27.9767  -13.8388 LP  0  0  0  0  0  0  0  0  0  0  0  0  # atno 4881 bound_to 621 
  -18.1873   27.4458  -13.6850 LP  0  0  0  0  0  0  0  0  0  0  0  0  # atno 4882 bound_to 621 

$$$$
Compound 127|Decoys_protonated|sdf|127|dock1
  -GOLD-   6122416193D 1   1.00000     0.00000

 19 20  0  0  0  0  0  0  0  0  1 V2000
  -21.1259   29.7466  -14.7195 O   0  0  0  0  0  0  0  0  0  0  0  0
  -22.0166   30.6024  -15.3061 C   0  0  0  0  0  0  0  0  0  0  0  0
  -21.8860   31.9597  -15.0285 C   0  0  0  0  0  0  0  0  0  0  0  0
  -23.0230   30.1500  -16.1523 C   0  0  0  0  0  0  0  0  0  0  0  0
  -20.8953   32.3944  -14.1967 O   0  0  0  0  0  0  0  0  0  0  0  0
  -22.7529   32.8867  -15.5873 C   0  0  0  0  0  0  0  0  0  0  0  0
  -23.9093   31.0803  -16.7259 C   0  0  0  0  0  0  0  0  0  0  0  0
  -23.7708   32.4502  -16.4405 C   0  0  0  0  0  0  0  0  0  0  0  0
  -24.9338   30.6194  -17.5874 N   0  0  0  0  0  0  0  0  0  0  0  0
  -25.5245   31.4185  -18.5065 N   0  0  0  0  0  0  0  0  0  0  0  0
  -25.5089   29.3771  -17.6809 C   0  0  0  0  0  0  0  0  0  0  0  0
  -26.4232   30.6647  -19.1236 N   0  0  0  0  0  0  0  0  0  0  0  0
  -26.4259   29.3909  -18.6211 N   0  0  0  0  0  0  0  0  0  0  0  0
  -20.9947   30.0234  -13.7955 H   0  0  0  0  0  0  0  0  0  0  0  0
  -23.1171   29.0877  -16.3632 H   0  0  0  0  0  0  0  0  0  0  0  0
  -20.8882   31.7493  -13.4613 H   0  0  0  0  0  0  0  0  0  0  0  0
  -22.6358   33.9427  -15.3591 H   0  0  0  0  0  0  0  0  0  0  0  0
  -24.4309   33.2043  -16.8597 H   0  0  0  0  0  0  0  0  0  0  0  0
  -25.2408   28.5294  -17.0715 H   0  0  0  0  0  0  0  0  0  0  0  0
  1  2  1  0  0  0  0
  1 14  1  0  0  0  0
  2  3  2  0  0  0  0
  2  4  1  0  0  0  0
  3  5  1  0  0  0  0
  3  6  1  0  0  0  0
  4  7  2  0  0  0  0
  4 15  1  0  0  0  0
  5 16  1  0  0  0  0
  6  8  2  0  0  0  0
  6 17  1  0  0  0  0
  7  9  1  0  0  0  0
  7  8  1  0  0  0  0
  8 18  1  0  0  0  0
  9 10  1  0  0  0  0
  9 11  1  0  0  0  0
 10 12  2  0  0  0  0
 11 13  2  0  0  0  0
 11 19  1  0  0  0  0
 12 13  1  0  0  0  0
M  END
>  <Column 1>
Oc1ccc(-n2cnnn2)cc1O ZINC000000026357

>  <Total Molweight>
178.151

>  <cLogP>
-0.1332

>  <cLogS>
-1.323

>  <H-Acceptors>
6

>  <H-Donors>
2

>  <Total Surface Area>
131.2

>  <MMFF94 Energy>
20.451

> <Gold.Version>
5.8.1

> <Gold.Id.Protein>
ID|2FQT|mol2

> <Gold.PLP.Fitness>
53.8348

> <Gold.PLP.PLP>
-31.8688

> <Gold.PLP.part.hbond>
-3.6331

> <Gold.PLP.part.metal>
-2.0000

> <Gold.PLP.part.buried>
-2.5237

> <Gold.PLP.part.nonpolar>
-24.8978

> <Gold.PLP.part.repulsive>
0.1675

> <Gold.PLP.ligand.clash>
0.0000

> <Gold.PLP.ligand.torsion>
0.2197

> <Gold.PLP.Chemscore.Hbond>
2.9175

> <Gold.PLP.Chemscore.CHOScore>
0.6123

> <Gold.PLP.Chemscore.Metal>
1.9693

> <Gold.Chemscore.Hbonds>
donor molecule, donor type, donor heavy atom, donor atom, acceptor molecule, acceptor atom, score
      L1  H     1    14       P1   611  0.94
      L1  H     5    16       P1   611  0.98
      P1  H  1244  3476       L1    10  1.00
      L1  C    11    19       P1   426  0.61
      P1  M  1222  1222       L1    12  0.97
      P1  M  1222  1222       L1    13  1.00

> <Gold.PLP.Chemscore.Internal.Correction>
0.0000

> <Gold.Protein.RotatedTorsions>
[ 3412  950  949  948 ] final  112.28 input   60.00 | X-H torsion
[ 3476 1244 1243 1240 ] final -140.93 input   60.00 | X-H torsion
[ 2649 1223 1224 1225 ] final -119.75 input   60.00 | X-H torsion
[ 4380 1912 1911 1909 ] final   17.22 input   60.00 | X-H torsion
[ 3084  621  620  617 ] final  -18.12 input   60.00 | X-H torsion

> <Gold.Protein.ActiveResidues>
 HIS54   GLU57   HIS58   ALA61   PHE62   ILE64   ARG65   ASP75   ILE76   ILE77  
 ASP78   ILE79   SER80   PRO81   ILE118  PRO119  ALA120  ALA121  ASN122  LYS124 
 GLN125  CYS126  GLY127  CO701   VAL4    GLU5    SER6    PHE7    GLU8    LEU9   
 HIS11   ARG20   HIS21   CYS22   GLY23   VAL24   HIS25   LYS35   ARG39   MET82  
 GLY83   CYS84   TYR89  

> <Gold.Protein.RotatedAtoms>
  -21.5690   37.6170  -16.3315 H   0  0  0  0  0  0  0  0  0  0  0  0  # atno 2649 bound_to 1223
  -20.4497   37.6287  -17.5539 H   0  0  0  0  0  0  0  0  0  0  0  0  # atno 2650 bound_to 1223
  -19.5917   28.6349  -13.3194 H   0  0  0  0  0  0  0  0  0  0  0  0  # atno 3084 bound_to 621 
  -27.6580   37.7833  -29.0578 H   0  0  0  0  0  0  0  0  0  0  0  0  # atno 3412 bound_to 950 
  -28.3370   39.2860  -29.2263 H   0  0  0  0  0  0  0  0  0  0  0  0  # atno 3413 bound_to 950 
  -28.8355   38.2835  -28.0040 H   0  0  0  0  0  0  0  0  0  0  0  0  # atno 3414 bound_to 950 
  -24.1203   32.0193  -19.7368 H   0  0  0  0  0  0  0  0  0  0  0  0  # atno 3476 bound_to 1244
  -21.1160   31.1821  -18.9870 H   0  0  0  0  0  0  0  0  0  0  0  0  # atno 4380 bound_to 1912
  -22.8947   31.4833  -20.6634 LP  0  0  0  0  0  0  0  0  0  0  0  0  # atno 4866 bound_to 1244
  -23.9749   32.5478  -21.2690 LP  0  0  0  0  0  0  0  0  0  0  0  0  # atno 4867 bound_to 1244
  -20.6051   38.9306  -16.5600 LP  0  0  0  0  0  0  0  0  0  0  0  0  # atno 4874 bound_to 1223
  -20.5350   30.7723  -20.4507 LP  0  0  0  0  0  0  0  0  0  0  0  0  # atno 4875 bound_to 1912
  -19.7797   31.9132  -19.5594 LP  0  0  0  0  0  0  0  0  0  0  0  0  # atno 4876 bound_to 1912
  -18.9523   27.3226  -14.0386 LP  0  0  0  0  0  0  0  0  0  0  0  0  # atno 4881 bound_to 621 
  -18.0327   28.2489  -13.0572 LP  0  0  0  0  0  0  0  0  0  0  0  0  # atno 4882 bound_to 621 

$$$$
Compound 128|Decoys_protonated|sdf|128|dock3
  -GOLD-   6122416193D 1   1.00000     0.00000

 24 25  0  0  0  0  0  0  0  0  1 V2000
  -24.3568   33.2849  -15.4384 F   0  0  0  0  0  0  0  0  0  0  0  0
  -24.3348   32.2097  -16.2430 C   0  0  0  0  0  0  0  0  0  0  0  0
  -23.1351   31.5829  -16.5807 C   0  0  0  0  0  0  0  0  0  0  0  0
  -25.5489   31.7377  -16.7377 C   0  0  0  0  0  0  0  0  0  0  0  0
  -21.8352   32.0776  -16.0693 C   0  0  0  0  0  0  0  0  0  0  0  0
  -23.1648   30.4636  -17.4250 C   0  0  0  0  0  0  0  0  0  0  0  0
  -25.5733   30.6236  -17.5777 C   0  0  0  0  0  0  0  0  0  0  0  0
  -20.8533   32.3988  -16.8776 N   0  0  0  0  0  0  0  0  0  0  0  0
  -21.5641   32.2343  -14.7435 N   0  0  0  0  0  0  0  0  0  0  0  0
  -24.3824   29.9697  -17.9182 C   0  0  0  0  0  0  0  0  0  0  0  0
  -19.7402   32.8423  -15.9859 C   0  0  0  0  0  0  0  0  0  0  0  0
  -20.2363   32.7248  -14.5398 C   0  0  0  0  0  0  0  0  0  0  0  0
  -24.3983   28.7918  -18.8479 C   0  0  0  0  0  0  0  0  0  0  0  0
  -26.4702   32.2443  -16.4670 H   0  0  0  0  0  0  0  0  0  0  0  0
  -22.2310   29.9741  -17.6983 H   0  0  0  0  0  0  0  0  0  0  0  0
  -26.5261   30.2677  -17.9646 H   0  0  0  0  0  0  0  0  0  0  0  0
  -22.2158   32.0301  -13.9969 H   0  0  0  0  0  0  0  0  0  0  0  0
  -19.4693   33.8758  -16.2261 H   0  0  0  0  0  0  0  0  0  0  0  0
  -18.8630   32.2088  -16.1536 H   0  0  0  0  0  0  0  0  0  0  0  0
  -20.2399   33.6956  -14.0359 H   0  0  0  0  0  0  0  0  0  0  0  0
  -19.6316   32.0187  -13.9635 H   0  0  0  0  0  0  0  0  0  0  0  0
  -24.2863   29.1303  -19.8825 H   0  0  0  0  0  0  0  0  0  0  0  0
  -25.3370   28.2350  -18.7575 H   0  0  0  0  0  0  0  0  0  0  0  0
  -23.5852   28.0974  -18.6115 H   0  0  0  0  0  0  0  0  0  0  0  0
  1  2  1  0  0  0  0
  2  3  2  0  0  0  0
  2  4  1  0  0  0  0
  3  5  1  0  0  0  0
  3  6  1  0  0  0  0
  4  7  2  0  0  0  0
  4 14  1  0  0  0  0
  5  8  2  0  0  0  0
  5  9  1  0  0  0  0
  6 10  2  0  0  0  0
  6 15  1  0  0  0  0
  7 10  1  0  0  0  0
  7 16  1  0  0  0  0
  8 11  1  0  0  0  0
  9 12  1  0  0  0  0
  9 17  1  0  0  0  0
 10 13  1  0  0  0  0
 11 12  1  0  0  0  0
 11 18  1  0  0  0  0
 11 19  1  0  0  0  0
 12 20  1  0  0  0  0
 12 21  1  0  0  0  0
 13 22  1  0  0  0  0
 13 23  1  0  0  0  0
 13 24  1  0  0  0  0
M  END
>  <Column 1>
Cc1ccc(F)c(C2=NCCN2)c1 ZINC000000026886

>  <Total Molweight>
178.209

>  <cLogP>
1.4752

>  <cLogS>
-2.481

>  <H-Acceptors>
2

>  <H-Donors>
1

>  <Total Surface Area>
140.32

>  <MMFF94 Energy>
34.502

> <Gold.Version>
5.8.1

> <Gold.Id.Protein>
ID|2FQT|mol2

> <Gold.PLP.Fitness>
41.6148

> <Gold.PLP.PLP>
-40.6545

> <Gold.PLP.part.hbond>
-1.0000

> <Gold.PLP.part.metal>
0.0000

> <Gold.PLP.part.buried>
-5.0861

> <Gold.PLP.part.nonpolar>
-34.1358

> <Gold.PLP.part.repulsive>
0.0177

> <Gold.PLP.ligand.clash>
0.0000

> <Gold.PLP.ligand.torsion>
1.0199

> <Gold.PLP.Chemscore.Hbond>
1.0000

> <Gold.PLP.Chemscore.CHOScore>
0.0000

> <Gold.PLP.Chemscore.Metal>
0.0000

> <Gold.Chemscore.Hbonds>
donor molecule, donor type, donor heavy atom, donor atom, acceptor molecule, acceptor atom, score
      P1  H  1912  4380       L1     8  1.00

> <Gold.PLP.Chemscore.Internal.Correction>
0.0000

> <Gold.Protein.RotatedTorsions>
[ 3412  950  949  948 ] final    6.77 input   60.00 | X-H torsion
[ 3476 1244 1243 1240 ] final -153.01 input   60.00 | X-H torsion
[ 2649 1223 1224 1225 ] final -171.87 input   60.00 | X-H torsion
[ 4380 1912 1911 1909 ] final   68.98 input   60.00 | X-H torsion
[ 3084  621  620  617 ] final  101.92 input   60.00 | X-H torsion

> <Gold.Protein.ActiveResidues>
 HIS54   GLU57   HIS58   ALA61   PHE62   ILE64   ARG65   ASP75   ILE76   ILE77  
 ASP78   ILE79   SER80   PRO81   ILE118  PRO119  ALA120  ALA121  ASN122  LYS124 
 GLN125  CYS126  GLY127  CO701   VAL4    GLU5    SER6    PHE7    GLU8    LEU9   
 HIS11   ARG20   HIS21   CYS22   GLY23   VAL24   HIS25   LYS35   ARG39   MET82  
 GLY83   CYS84   TYR89  

> <Gold.Protein.RotatedAtoms>
  -21.3675   38.3871  -16.0612 H   0  0  0  0  0  0  0  0  0  0  0  0  # atno 2649 bound_to 1223
  -21.0554   37.1925  -17.1669 H   0  0  0  0  0  0  0  0  0  0  0  0  # atno 2650 bound_to 1223
  -18.0389   28.2459  -13.0585 H   0  0  0  0  0  0  0  0  0  0  0  0  # atno 3084 bound_to 621 
  -28.7196   38.0717  -28.0038 H   0  0  0  0  0  0  0  0  0  0  0  0  # atno 3412 bound_to 950 
  -27.6057   37.9494  -29.2251 H   0  0  0  0  0  0  0  0  0  0  0  0  # atno 3413 bound_to 950 
  -28.5052   39.3316  -29.0592 H   0  0  0  0  0  0  0  0  0  0  0  0  # atno 3414 bound_to 950 
  -23.9806   31.8915  -19.6823 H   0  0  0  0  0  0  0  0  0  0  0  0  # atno 3476 bound_to 1244
  -20.5326   31.7361  -18.8434 H   0  0  0  0  0  0  0  0  0  0  0  0  # atno 4380 bound_to 1912
  -22.8936   31.5592  -20.8468 LP  0  0  0  0  0  0  0  0  0  0  0  0  # atno 4866 bound_to 1244
  -24.1167   32.6006  -21.1406 LP  0  0  0  0  0  0  0  0  0  0  0  0  # atno 4867 bound_to 1244
  -20.2069   38.6015  -17.2075 LP  0  0  0  0  0  0  0  0  0  0  0  0  # atno 4874 bound_to 1223
  -21.1222   30.6382  -19.8898 LP  0  0  0  0  0  0  0  0  0  0  0  0  # atno 4875 bound_to 1912
  -19.7799   31.4893  -20.2649 LP  0  0  0  0  0  0  0  0  0  0  0  0  # atno 4876 bound_to 1912
  -19.5959   28.6405  -13.3198 LP  0  0  0  0  0  0  0  0  0  0  0  0  # atno 4881 bound_to 621 
  -18.9528   27.3228  -14.0387 LP  0  0  0  0  0  0  0  0  0  0  0  0  # atno 4882 bound_to 621 

$$$$
Compound 129|Decoys_protonated|sdf|129|dock6
  -GOLD-   6122416193D 1   1.00000     0.00000

 17 18  0  0  0  0  0  0  0  0  1 V2000
  -23.4495   30.6495  -17.1372 N   0  0  0  0  0  0  0  0  0  0  0  0
  -24.5979   31.3734  -17.1793 C   0  0  0  0  0  0  0  0  0  0  0  0
  -22.6094   30.8563  -16.1012 C   0  0  0  0  0  0  0  0  0  0  0  0
  -25.4934   31.1278  -18.3180 C   0  0  0  0  0  0  0  0  0  0  0  0
  -24.9152   32.3054  -16.1915 C   0  0  0  0  0  0  0  0  0  0  0  0
  -22.8524   31.7612  -15.0840 C   0  0  0  0  0  0  0  0  0  0  0  0
  -25.9603   32.1001  -19.1275 N   0  0  0  0  0  0  0  0  0  0  0  0
  -26.0270   29.8987  -18.7841 C   0  0  0  0  0  0  0  0  0  0  0  0
  -24.0282   32.4984  -15.1324 C   0  0  0  0  0  0  0  0  0  0  0  0
  -26.7164   31.4199  -19.9959 N   0  0  0  0  0  0  0  0  0  0  0  0
  -26.8056   30.0894  -19.8532 N   0  0  0  0  0  0  0  0  0  0  0  0
  -21.7058   30.2535  -16.1136 H   0  0  0  0  0  0  0  0  0  0  0  0
  -25.8310   32.8843  -16.2228 H   0  0  0  0  0  0  0  0  0  0  0  0
  -22.1424   31.8877  -14.2744 H   0  0  0  0  0  0  0  0  0  0  0  0
  -25.8887   28.8967  -18.4041 H   0  0  0  0  0  0  0  0  0  0  0  0
  -24.2549   33.2194  -14.3516 H   0  0  0  0  0  0  0  0  0  0  0  0
  -27.2097   31.9010  -20.7442 H   0  0  0  0  0  0  0  0  0  0  0  0
  1  2  2  0  0  0  0
  1  3  1  0  0  0  0
  2  4  1  0  0  0  0
  2  5  1  0  0  0  0
  3  6  2  0  0  0  0
  3 12  1  0  0  0  0
  4  7  2  0  0  0  0
  4  8  1  0  0  0  0
  5  9  2  0  0  0  0
  5 13  1  0  0  0  0
  6  9  1  0  0  0  0
  6 14  1  0  0  0  0
  7 10  1  0  0  0  0
  8 11  2  0  0  0  0
  8 15  1  0  0  0  0
  9 16  1  0  0  0  0
 10 11  1  0  0  0  0
 10 17  1  0  0  0  0
M  END
>  <Column 1>
c1ccc(-c2cn[nH]n2)nc1 ZINC000000027315

>  <Total Molweight>
146.153

>  <cLogP>
0.0391

>  <cLogS>
-0.853

>  <H-Acceptors>
4

>  <H-Donors>
1

>  <Total Surface Area>
118.87

>  <MMFF94 Energy>
56.641

> <Gold.Version>
5.8.1

> <Gold.Id.Protein>
ID|2FQT|mol2

> <Gold.PLP.Fitness>
43.9369

> <Gold.PLP.PLP>
-30.9600

> <Gold.PLP.part.hbond>
-3.0626

> <Gold.PLP.part.metal>
-1.0000

> <Gold.PLP.part.buried>
-1.4237

> <Gold.PLP.part.nonpolar>
-27.2907

> <Gold.PLP.part.repulsive>
1.2407

> <Gold.PLP.ligand.clash>
0.0000

> <Gold.PLP.ligand.torsion>
0.9592

> <Gold.PLP.Chemscore.Hbond>
2.9920

> <Gold.PLP.Chemscore.CHOScore>
0.0000

> <Gold.PLP.Chemscore.Metal>
0.9865

> <Gold.Chemscore.Hbonds>
donor molecule, donor type, donor heavy atom, donor atom, acceptor molecule, acceptor atom, score
      L1  H    10    17       P1   954  1.00
      P1  H   966  3428       L1    11  1.00
      P1  H  1244  3476       L1     7  0.99
      P1  M  1222  1222       L1    11  0.99

> <Gold.PLP.Chemscore.Internal.Correction>
0.0000

> <Gold.Protein.RotatedTorsions>
[ 3412  950  949  948 ] final  -11.05 input   60.00 | X-H torsion
[ 3476 1244 1243 1240 ] final  -95.83 input   60.00 | X-H torsion
[ 2649 1223 1224 1225 ] final   64.75 input   60.00 | X-H torsion
[ 4380 1912 1911 1909 ] final   30.53 input   60.00 | X-H torsion
[ 3084  621  620  617 ] final  -18.11 input   60.00 | X-H torsion

> <Gold.Protein.ActiveResidues>
 HIS54   GLU57   HIS58   ALA61   PHE62   ILE64   ARG65   ASP75   ILE76   ILE77  
 ASP78   ILE79   SER80   PRO81   ILE118  PRO119  ALA120  ALA121  ASN122  LYS124 
 GLN125  CYS126  GLY127  CO701   VAL4    GLU5    SER6    PHE7    GLU8    LEU9   
 HIS11   ARG20   HIS21   CYS22   GLY23   VAL24   HIS25   LYS35   ARG39   MET82  
 GLY83   CYS84   TYR89  

> <Gold.Protein.RotatedAtoms>
  -20.1841   38.5659  -17.2473 H   0  0  0  0  0  0  0  0  0  0  0  0  # atno 2649 bound_to 1223
  -21.3372   38.4349  -16.0640 H   0  0  0  0  0  0  0  0  0  0  0  0  # atno 2650 bound_to 1223
  -19.5916   28.6350  -13.3193 H   0  0  0  0  0  0  0  0  0  0  0  0  # atno 3084 bound_to 621 
  -28.8573   38.3342  -28.0109 H   0  0  0  0  0  0  0  0  0  0  0  0  # atno 3412 bound_to 950 
  -27.6758   37.7508  -29.0164 H   0  0  0  0  0  0  0  0  0  0  0  0  # atno 3413 bound_to 950 
  -28.2974   39.2678  -29.2608 H   0  0  0  0  0  0  0  0  0  0  0  0  # atno 3414 bound_to 950 
  -24.4246   32.4512  -20.2231 H   0  0  0  0  0  0  0  0  0  0  0  0  # atno 3476 bound_to 1244
  -20.9991   31.3355  -18.8875 H   0  0  0  0  0  0  0  0  0  0  0  0  # atno 4380 bound_to 1912
  -23.1826   31.4232  -20.0027 LP  0  0  0  0  0  0  0  0  0  0  0  0  # atno 4866 bound_to 1244
  -23.3806   32.1729  -21.4399 LP  0  0  0  0  0  0  0  0  0  0  0  0  # atno 4867 bound_to 1244
  -21.0951   37.2014  -17.1255 LP  0  0  0  0  0  0  0  0  0  0  0  0  # atno 4874 bound_to 1223
  -20.7119   30.6891  -20.3530 LP  0  0  0  0  0  0  0  0  0  0  0  0  # atno 4875 bound_to 1912
  -19.7204   31.8418  -19.7573 LP  0  0  0  0  0  0  0  0  0  0  0  0  # atno 4876 bound_to 1912
  -18.9524   27.3227  -14.0386 LP  0  0  0  0  0  0  0  0  0  0  0  0  # atno 4881 bound_to 621 
  -18.0327   28.2488  -13.0572 LP  0  0  0  0  0  0  0  0  0  0  0  0  # atno 4882 bound_to 621 

$$$$
Compound 130|Decoys_protonated|sdf|130|dock1
  -GOLD-   6122416193D 1   1.00000     0.00000

 17 18  0  0  0  0  0  0  0  0  1 V2000
  -23.3397   32.3350  -15.0591 N   0  0  0  0  0  0  0  0  0  0  0  0
  -22.7473   31.3651  -15.7858 C   0  0  0  0  0  0  0  0  0  0  0  0
  -24.5941   32.6777  -15.4166 C   0  0  0  0  0  0  0  0  0  0  0  0
  -23.3541   30.7240  -16.8528 C   0  0  0  0  0  0  0  0  0  0  0  0
  -25.2852   32.0954  -16.4680 C   0  0  0  0  0  0  0  0  0  0  0  0
  -24.6547   31.0926  -17.2087 C   0  0  0  0  0  0  0  0  0  0  0  0
  -25.3062   30.4308  -18.3250 C   0  0  0  0  0  0  0  0  0  0  0  0
  -26.5521   30.7733  -18.7908 N   0  0  0  0  0  0  0  0  0  0  0  0
  -24.8208   29.3901  -19.0852 C   0  0  0  0  0  0  0  0  0  0  0  0
  -26.8507   29.9802  -19.8107 N   0  0  0  0  0  0  0  0  0  0  0  0
  -25.8140   29.1508  -19.9882 N   0  0  0  0  0  0  0  0  0  0  0  0
  -21.7377   31.1058  -15.4795 H   0  0  0  0  0  0  0  0  0  0  0  0
  -25.0473   33.4607  -14.8151 H   0  0  0  0  0  0  0  0  0  0  0  0
  -22.8159   29.9510  -17.3930 H   0  0  0  0  0  0  0  0  0  0  0  0
  -26.2914   32.4311  -16.6874 H   0  0  0  0  0  0  0  0  0  0  0  0
  -23.9063   28.8182  -19.0760 H   0  0  0  0  0  0  0  0  0  0  0  0
  -25.8621   28.4643  -20.7324 H   0  0  0  0  0  0  0  0  0  0  0  0
  1  2  2  0  0  0  0
  1  3  1  0  0  0  0
  2  4  1  0  0  0  0
  2 12  1  0  0  0  0
  3  5  2  0  0  0  0
  3 13  1  0  0  0  0
  4  6  2  0  0  0  0
  4 14  1  0  0  0  0
  5  6  1  0  0  0  0
  5 15  1  0  0  0  0
  6  7  1  0  0  0  0
  7  8  1  0  0  0  0
  7  9  2  0  0  0  0
  8 10  2  0  0  0  0
  9 11  1  0  0  0  0
  9 16  1  0  0  0  0
 10 11  1  0  0  0  0
 11 17  1  0  0  0  0
M  END
>  <Column 1>
c1cc(-c2c[nH]nn2)ccn1 ZINC000000027317

>  <Total Molweight>
146.153

>  <cLogP>
-0.0519

>  <cLogS>
-1.161

>  <H-Acceptors>
4

>  <H-Donors>
1

>  <Total Surface Area>
118.87

>  <MMFF94 Energy>
8.1992

> <Gold.Version>
5.8.1

> <Gold.Id.Protein>
ID|2FQT|mol2

> <Gold.PLP.Fitness>
48.6308

> <Gold.PLP.PLP>
-33.6502

> <Gold.PLP.part.hbond>
-1.0000

> <Gold.PLP.part.metal>
-2.0000

> <Gold.PLP.part.buried>
-5.7032

> <Gold.PLP.part.nonpolar>
-25.4917

> <Gold.PLP.part.repulsive>
0.5373

> <Gold.PLP.ligand.clash>
0.0000

> <Gold.PLP.ligand.torsion>
0.0056

> <Gold.PLP.Chemscore.Hbond>
1.0000

> <Gold.PLP.Chemscore.CHOScore>
0.0000

> <Gold.PLP.Chemscore.Metal>
1.9986

> <Gold.Chemscore.Hbonds>
donor molecule, donor type, donor heavy atom, donor atom, acceptor molecule, acceptor atom, score
      P1  H   966  3428       L1    10  1.00
      P1  M  1222  1222       L1     8  1.00
      P1  M  1222  1222       L1    10  1.00

> <Gold.PLP.Chemscore.Internal.Correction>
0.0000

> <Gold.Protein.RotatedTorsions>
[ 3412  950  949  948 ] final   77.71 input   60.00 | X-H torsion
[ 3476 1244 1243 1240 ] final  105.24 input   60.00 | X-H torsion
[ 2649 1223 1224 1225 ] final  -96.97 input   60.00 | X-H torsion
[ 4380 1912 1911 1909 ] final   33.21 input   60.00 | X-H torsion
[ 3084  621  620  617 ] final  175.14 input   60.00 | X-H torsion

> <Gold.Protein.ActiveResidues>
 HIS54   GLU57   HIS58   ALA61   PHE62   ILE64   ARG65   ASP75   ILE76   ILE77  
 ASP78   ILE79   SER80   PRO81   ILE118  PRO119  ALA120  ALA121  ASN122  LYS124 
 GLN125  CYS126  GLY127  CO701   VAL4    GLU5    SER6    PHE7    GLU8    LEU9   
 HIS11   ARG20   HIS21   CYS22   GLY23   VAL24   HIS25   LYS35   ARG39   MET82  
 GLY83   CYS84   TYR89  

> <Gold.Protein.RotatedAtoms>
  -21.4815   37.3582  -16.5928 H   0  0  0  0  0  0  0  0  0  0  0  0  # atno 2649 bound_to 1223
  -20.2655   37.9587  -17.5456 H   0  0  0  0  0  0  0  0  0  0  0  0  # atno 2650 bound_to 1223
  -18.2708   27.3969  -13.7459 H   0  0  0  0  0  0  0  0  0  0  0  0  # atno 3084 bound_to 621 
  -27.9306   37.5728  -28.6054 H   0  0  0  0  0  0  0  0  0  0  0  0  # atno 3412 bound_to 950 
  -27.9407   38.9747  -29.4896 H   0  0  0  0  0  0  0  0  0  0  0  0  # atno 3413 bound_to 950 
  -28.9593   38.8052  -28.1931 H   0  0  0  0  0  0  0  0  0  0  0  0  # atno 3414 bound_to 950 
  -22.9124   31.4593  -20.5665 H   0  0  0  0  0  0  0  0  0  0  0  0  # atno 3476 bound_to 1244
  -20.9720   31.3664  -18.8724 H   0  0  0  0  0  0  0  0  0  0  0  0  # atno 4380 bound_to 1912
  -23.8968   32.5115  -21.3227 LP  0  0  0  0  0  0  0  0  0  0  0  0  # atno 4866 bound_to 1244
  -24.1893   32.0836  -19.7741 LP  0  0  0  0  0  0  0  0  0  0  0  0  # atno 4867 bound_to 1244
  -20.8727   38.8604  -16.3107 LP  0  0  0  0  0  0  0  0  0  0  0  0  # atno 4874 bound_to 1223
  -20.7463   30.6761  -20.3286 LP  0  0  0  0  0  0  0  0  0  0  0  0  # atno 4875 bound_to 1912
  -19.7134   31.8237  -19.7969 LP  0  0  0  0  0  0  0  0  0  0  0  0  # atno 4876 bound_to 1912
  -18.5640   28.7467  -12.8856 LP  0  0  0  0  0  0  0  0  0  0  0  0  # atno 4881 bound_to 621 
  -19.7513   28.0715  -13.7806 LP  0  0  0  0  0  0  0  0  0  0  0  0  # atno 4882 bound_to 621 

$$$$
Compound 131|Decoys_protonated|sdf|131|dock9
  -GOLD-   6122416193D 1   1.00000     0.00000

 26 27  0  0  0  0  0  0  0  0  1 V2000
  -17.3129   36.1027  -17.3858 S   0  0  0  0  0  0  0  0  0  0  0  0
  -17.5118   34.8811  -18.5359 N   0  0  0  0  0  0  0  0  0  0  0  0
  -18.8880   35.7527  -16.6648 C   0  0  0  0  0  0  0  0  0  0  0  0
  -18.7228   34.2063  -18.4243 C   0  0  0  0  0  0  0  0  0  0  0  0
  -16.5065   34.6135  -19.5330 C   0  0  0  0  0  0  0  0  0  0  0  0
  -19.3030   36.3739  -15.6988 O   0  0  0  0  0  0  0  0  0  0  0  0
  -19.4737   34.7169  -17.3616 N   0  0  0  0  0  0  0  0  0  0  0  0
  -19.0559   33.2987  -19.1807 O   0  0  0  0  0  0  0  0  0  0  0  0
  -20.7537   34.2067  -17.0205 C   0  0  0  0  0  0  0  0  0  0  0  0
  -20.9673   32.8270  -16.9008 C   0  0  0  0  0  0  0  0  0  0  0  0
  -21.8312   35.0705  -16.7924 C   0  0  0  0  0  0  0  0  0  0  0  0
  -22.2295   32.3195  -16.5647 C   0  0  0  0  0  0  0  0  0  0  0  0
  -23.0896   34.5615  -16.4552 C   0  0  0  0  0  0  0  0  0  0  0  0
  -23.2972   33.1862  -16.3406 C   0  0  0  0  0  0  0  0  0  0  0  0
  -24.5728   32.8253  -16.0083 O   0  0  0  0  0  0  0  0  0  0  0  0
  -25.0091   31.5403  -16.4336 C   0  0  0  0  0  0  0  0  0  0  0  0
  -16.3636   35.5061  -20.1495 H   0  0  0  0  0  0  0  0  0  0  0  0
  -15.5661   34.3532  -19.0378 H   0  0  0  0  0  0  0  0  0  0  0  0
  -16.8095   33.7836  -20.1769 H   0  0  0  0  0  0  0  0  0  0  0  0
  -20.1555   32.1210  -17.0647 H   0  0  0  0  0  0  0  0  0  0  0  0
  -21.7170   36.1489  -16.8756 H   0  0  0  0  0  0  0  0  0  0  0  0
  -22.3399   31.2428  -16.4883 H   0  0  0  0  0  0  0  0  0  0  0  0
  -23.9162   35.2465  -16.2805 H   0  0  0  0  0  0  0  0  0  0  0  0
  -25.0035   31.4629  -17.5258 H   0  0  0  0  0  0  0  0  0  0  0  0
  -26.0417   31.4093  -16.0959 H   0  0  0  0  0  0  0  0  0  0  0  0
  -24.4065   30.7480  -15.9772 H   0  0  0  0  0  0  0  0  0  0  0  0
  1  2  1  0  0  0  0
  1  3  1  0  0  0  0
  2  4  1  0  0  0  0
  2  5  1  0  0  0  0
  3  6  2  0  0  0  0
  3  7  1  0  0  0  0
  4  8  2  0  0  0  0
  4  7  1  0  0  0  0
  5 17  1  0  0  0  0
  5 18  1  0  0  0  0
  5 19  1  0  0  0  0
  7  9  1  0  0  0  0
  9 10  2  0  0  0  0
  9 11  1  0  0  0  0
 10 12  1  0  0  0  0
 10 20  1  0  0  0  0
 11 13  2  0  0  0  0
 11 21  1  0  0  0  0
 12 14  2  0  0  0  0
 12 22  1  0  0  0  0
 13 14  1  0  0  0  0
 13 23  1  0  0  0  0
 14 15  1  0  0  0  0
 15 16  1  0  0  0  0
 16 24  1  0  0  0  0
 16 25  1  0  0  0  0
 16 26  1  0  0  0  0
M  END
>  <Column 1>
COc1ccc(-n2c(=O)sn(C)c2=O)cc1 ZINC000000027363

>  <Total Molweight>
238.266

>  <cLogP>
1.902

>  <cLogS>
-3.73

>  <H-Acceptors>
5

>  <H-Donors>
0

>  <Total Surface Area>
167.87

>  <MMFF94 Energy>
-2.6115

> <Gold.Version>
5.8.1

> <Gold.Id.Protein>
ID|2FQT|mol2

> <Gold.PLP.Fitness>
45.5538

> <Gold.PLP.PLP>
-44.5766

> <Gold.PLP.part.hbond>
-1.9478

> <Gold.PLP.part.metal>
0.0000

> <Gold.PLP.part.buried>
-4.3272

> <Gold.PLP.part.nonpolar>
-39.2232

> <Gold.PLP.part.repulsive>
0.1389

> <Gold.PLP.ligand.clash>
0.0000

> <Gold.PLP.ligand.torsion>
1.1874

> <Gold.PLP.Chemscore.Hbond>
1.0000

> <Gold.PLP.Chemscore.CHOScore>
0.0000

> <Gold.PLP.Chemscore.Metal>
0.0000

> <Gold.Chemscore.Hbonds>
donor molecule, donor type, donor heavy atom, donor atom, acceptor molecule, acceptor atom, score
      P1  H  1912  4380       L1     8  1.00

> <Gold.PLP.Chemscore.Internal.Correction>
0.3520

> <Gold.Protein.RotatedTorsions>
[ 3412  950  949  948 ] final  148.50 input   60.00 | X-H torsion
[ 3476 1244 1243 1240 ] final  -87.37 input   60.00 | X-H torsion
[ 2649 1223 1224 1225 ] final   94.10 input   60.00 | X-H torsion
[ 4380 1912 1911 1909 ] final  120.86 input   60.00 | X-H torsion
[ 3084  621  620  617 ] final -155.61 input   60.00 | X-H torsion

> <Gold.Protein.ActiveResidues>
 HIS54   GLU57   HIS58   ALA61   PHE62   ILE64   ARG65   ASP75   ILE76   ILE77  
 ASP78   ILE79   SER80   PRO81   ILE118  PRO119  ALA120  ALA121  ASN122  LYS124 
 GLN125  CYS126  GLY127  CO701   VAL4    GLU5    SER6    PHE7    GLU8    LEU9   
 HIS11   ARG20   HIS21   CYS22   GLY23   VAL24   HIS25   LYS35   ARG39   MET82  
 GLY83   CYS84   TYR89  

> <Gold.Protein.RotatedAtoms>
  -20.3410   38.8546  -16.8907 H   0  0  0  0  0  0  0  0  0  0  0  0  # atno 2649 bound_to 1223
  -21.5353   37.9967  -16.1261 H   0  0  0  0  0  0  0  0  0  0  0  0  # atno 2650 bound_to 1223
  -18.6786   27.2935  -13.9614 H   0  0  0  0  0  0  0  0  0  0  0  0  # atno 3084 bound_to 621 
  -27.6075   38.2544  -29.4178 H   0  0  0  0  0  0  0  0  0  0  0  0  # atno 3412 bound_to 950 
  -28.7271   39.2952  -28.7771 H   0  0  0  0  0  0  0  0  0  0  0  0  # atno 3413 bound_to 950 
  -28.4959   37.8032  -28.0932 H   0  0  0  0  0  0  0  0  0  0  0  0  # atno 3414 bound_to 950 
  -24.4330   32.5097  -20.3479 H   0  0  0  0  0  0  0  0  0  0  0  0  # atno 3476 bound_to 1244
  -19.9061   31.9484  -19.3264 H   0  0  0  0  0  0  0  0  0  0  0  0  # atno 4380 bound_to 1912
  -23.2770   31.4534  -19.9053 LP  0  0  0  0  0  0  0  0  0  0  0  0  # atno 4866 bound_to 1244
  -23.2776   32.0838  -21.4117 LP  0  0  0  0  0  0  0  0  0  0  0  0  # atno 4867 bound_to 1244
  -20.7454   37.3487  -17.4157 LP  0  0  0  0  0  0  0  0  0  0  0  0  # atno 4874 bound_to 1223
  -21.2187   31.0018  -19.1558 LP  0  0  0  0  0  0  0  0  0  0  0  0  # atno 4875 bound_to 1912
  -20.3144   30.9119  -20.5126 LP  0  0  0  0  0  0  0  0  0  0  0  0  # atno 4876 bound_to 1912
  -18.1828   28.4693  -12.9517 LP  0  0  0  0  0  0  0  0  0  0  0  0  # atno 4881 bound_to 621 
  -19.7218   28.4530  -13.4975 LP  0  0  0  0  0  0  0  0  0  0  0  0  # atno 4882 bound_to 621 

$$$$
Compound 132|Decoys_protonated|sdf|132|dock1
  -GOLD-   6122416193D 1   1.00000     0.00000

 29 31  0  0  0  0  0  0  0  0  1 V2000
  -18.4038   35.9070  -16.7158 S   0  0  1  0  0  0  0  0  0  0  0  0
  -18.7861   37.1252  -17.5035 O   0  0  0  0  0  0  0  0  0  0  0  0
  -18.3984   36.1689  -15.0564 N   0  0  0  0  0  0  0  0  0  0  0  0
  -19.8797   34.8026  -16.6588 C   0  0  0  0  0  0  0  0  0  0  0  0
  -19.4491   37.0489  -14.5084 C   0  0  0  0  0  0  0  0  0  0  0  0
  -18.2406   34.9942  -14.1777 C   0  0  0  0  0  0  0  0  0  0  0  0
  -19.7385   33.0991  -16.7133 S   0  0  0  0  0  0  0  0  0  0  0  0
  -21.1006   35.2845  -16.5403 N   0  0  0  0  0  0  0  0  0  0  0  0
  -19.1762   37.4107  -13.0446 C   0  0  0  0  0  0  0  0  0  0  0  0
  -18.0112   35.4025  -12.7174 C   0  0  0  0  0  0  0  0  0  0  0  0
  -21.4507   32.9594  -16.6023 C   0  0  0  0  0  0  0  0  0  0  0  0
  -22.0066   34.2383  -16.5171 C   0  0  0  0  0  0  0  0  0  0  0  0
  -19.0740   36.2332  -12.2370 O   0  0  0  0  0  0  0  0  0  0  0  0
  -22.2462   31.8015  -16.5888 C   0  0  0  0  0  0  0  0  0  0  0  0
  -23.4073   34.3619  -16.4142 C   0  0  0  0  0  0  0  0  0  0  0  0
  -23.6326   31.9521  -16.4871 C   0  0  0  0  0  0  0  0  0  0  0  0
  -24.2087   33.2154  -16.4006 C   0  0  0  0  0  0  0  0  0  0  0  0
  -19.5180   37.9785  -15.0850 H   0  0  0  0  0  0  0  0  0  0  0  0
  -20.4202   36.5420  -14.5828 H   0  0  0  0  0  0  0  0  0  0  0  0
  -19.1391   34.3671  -14.2439 H   0  0  0  0  0  0  0  0  0  0  0  0
  -17.3845   34.3883  -14.4971 H   0  0  0  0  0  0  0  0  0  0  0  0
  -20.0028   38.0107  -12.6508 H   0  0  0  0  0  0  0  0  0  0  0  0
  -18.2584   38.0029  -12.9439 H   0  0  0  0  0  0  0  0  0  0  0  0
  -17.9770   34.5102  -12.0843 H   0  0  0  0  0  0  0  0  0  0  0  0
  -17.0572   35.9304  -12.5979 H   0  0  0  0  0  0  0  0  0  0  0  0
  -21.7979   30.8146  -16.6556 H   0  0  0  0  0  0  0  0  0  0  0  0
  -23.8544   35.3487  -16.3463 H   0  0  0  0  0  0  0  0  0  0  0  0
  -24.2675   31.0681  -16.4751 H   0  0  0  0  0  0  0  0  0  0  0  0
  -25.2890   33.3154  -16.3215 H   0  0  0  0  0  0  0  0  0  0  0  0
  1  2  2  0  0  0  0
  1  3  1  0  0  0  0
  1  4  1  0  0  0  0
  3  5  1  0  0  0  0
  3  6  1  0  0  0  0
  4  7  1  0  0  0  0
  4  8  2  0  0  0  0
  5  9  1  0  0  0  0
  5 18  1  0  0  0  0
  5 19  1  0  0  0  0
  6 10  1  0  0  0  0
  6 20  1  0  0  0  0
  6 21  1  0  0  0  0
  7 11  1  0  0  0  0
  8 12  1  0  0  0  0
  9 13  1  0  0  0  0
  9 22  1  0  0  0  0
  9 23  1  0  0  0  0
 10 13  1  0  0  0  0
 10 24  1  0  0  0  0
 10 25  1  0  0  0  0
 11 14  1  0  0  0  0
 11 12  2  0  0  0  0
 12 15  1  0  0  0  0
 14 16  2  0  0  0  0
 14 26  1  0  0  0  0
 15 17  2  0  0  0  0
 15 27  1  0  0  0  0
 16 17  1  0  0  0  0
 16 28  1  0  0  0  0
 17 29  1  0  0  0  0
M  END
>  <Column 1>
O=[S@](c1nc2ccccc2s1)N1CCOCC1 ZINC000000027632

>  <Total Molweight>
268.36

>  <cLogP>
1.3918

>  <cLogS>
-2.887

>  <H-Acceptors>
4

>  <H-Donors>
0

>  <Total Surface Area>
187.12

>  <MMFF94 Energy>
78.461

> <Gold.Version>
5.8.1

> <Gold.Id.Protein>
ID|2FQT|mol2

> <Gold.PLP.Fitness>
48.8604

> <Gold.PLP.PLP>
-41.8768

> <Gold.PLP.part.hbond>
-2.9883

> <Gold.PLP.part.metal>
0.0000

> <Gold.PLP.part.buried>
-5.8016

> <Gold.PLP.part.nonpolar>
-32.8682

> <Gold.PLP.part.repulsive>
0.0924

> <Gold.PLP.ligand.clash>
0.0000

> <Gold.PLP.ligand.torsion>
1.2696

> <Gold.PLP.Chemscore.Hbond>
2.8080

> <Gold.PLP.Chemscore.CHOScore>
0.0000

> <Gold.PLP.Chemscore.Metal>
0.0000

> <Gold.Chemscore.Hbonds>
donor molecule, donor type, donor heavy atom, donor atom, acceptor molecule, acceptor atom, score
      P1  H  1223  2649       L1     8  0.99
      P1  H  1223  2650       L1     2  0.82
      P1  H  1230  2756       L1     2  1.00

> <Gold.PLP.Chemscore.Internal.Correction>
1.0988

> <Gold.Protein.RotatedTorsions>
[ 3412  950  949  948 ] final  127.37 input   60.00 | X-H torsion
[ 3476 1244 1243 1240 ] final -133.88 input   60.00 | X-H torsion
[ 2649 1223 1224 1225 ] final  -87.64 input   60.00 | X-H torsion
[ 4380 1912 1911 1909 ] final -101.69 input   60.00 | X-H torsion
[ 3084  621  620  617 ] final -120.23 input   60.00 | X-H torsion

> <Gold.Protein.ActiveResidues>
 HIS54   GLU57   HIS58   ALA61   PHE62   ILE64   ARG65   ASP75   ILE76   ILE77  
 ASP78   ILE79   SER80   PRO81   ILE118  PRO119  ALA120  ALA121  ASN122  LYS124 
 GLN125  CYS126  GLY127  CO701   VAL4    GLU5    SER6    PHE7    GLU8    LEU9   
 HIS11   ARG20   HIS21   CYS22   GLY23   VAL24   HIS25   LYS35   ARG39   MET82  
 GLY83   CYS84   TYR89  

> <Gold.Protein.RotatedAtoms>
  -21.4169   37.2822  -16.7123 H   0  0  0  0  0  0  0  0  0  0  0  0  # atno 2649 bound_to 1223
  -20.2162   38.1016  -17.5085 H   0  0  0  0  0  0  0  0  0  0  0  0  # atno 2650 bound_to 1223
  -19.2231   27.4313  -14.0519 H   0  0  0  0  0  0  0  0  0  0  0  0  # atno 3084 bound_to 621 
  -27.6044   37.9571  -29.2314 H   0  0  0  0  0  0  0  0  0  0  0  0  # atno 3412 bound_to 950 
  -28.5119   39.3324  -29.0518 H   0  0  0  0  0  0  0  0  0  0  0  0  # atno 3413 bound_to 950 
  -28.7142   38.0634  -28.0049 H   0  0  0  0  0  0  0  0  0  0  0  0  # atno 3414 bound_to 950 
  -24.1929   32.0942  -19.7857 H   0  0  0  0  0  0  0  0  0  0  0  0  # atno 3476 bound_to 1244
  -20.5479   30.7663  -20.4377 H   0  0  0  0  0  0  0  0  0  0  0  0  # atno 4380 bound_to 1912
  -22.9111   31.4498  -20.5536 LP  0  0  0  0  0  0  0  0  0  0  0  0  # atno 4866 bound_to 1244
  -23.8853   32.5059  -21.3296 LP  0  0  0  0  0  0  0  0  0  0  0  0  # atno 4867 bound_to 1244
  -20.9849   38.7945  -16.2295 LP  0  0  0  0  0  0  0  0  0  0  0  0  # atno 4874 bound_to 1223
  -19.7733   31.9086  -19.5756 LP  0  0  0  0  0  0  0  0  0  0  0  0  # atno 4875 bound_to 1912
  -21.1134   31.1956  -18.9735 LP  0  0  0  0  0  0  0  0  0  0  0  0  # atno 4876 bound_to 1912
  -17.9586   28.0067  -13.2046 LP  0  0  0  0  0  0  0  0  0  0  0  0  # atno 4881 bound_to 621 
  -19.3976   28.7769  -13.1535 LP  0  0  0  0  0  0  0  0  0  0  0  0  # atno 4882 bound_to 621 

$$$$
Compound 133|Decoys_protonated|sdf|133|dock9
  -GOLD-   6122416203D 1   1.00000     0.00000

 35 35  0  0  0  0  0  0  0  0  1 V2000
  -19.4273   35.3903  -17.5705 O   0  0  0  0  0  0  0  0  0  0  0  0
  -20.7990   35.6731  -17.7338 N   0  0  0  0  0  0  0  0  0  0  0  0
  -18.7825   36.3691  -16.8090 C   0  0  0  0  0  0  0  0  0  0  0  0
  -21.5312   34.7975  -17.1172 C   0  0  0  0  0  0  0  0  0  0  0  0
  -18.5854   36.1732  -15.5098 N   0  0  0  0  0  0  0  0  0  0  0  0
  -18.4137   37.4404  -17.5008 N   0  0  0  0  0  0  0  0  0  0  0  0
  -23.0288   34.9446  -17.1836 C   0  0  0  0  0  0  0  0  0  0  0  0
  -20.9787   33.6341  -16.3316 C   0  0  0  0  0  0  0  0  0  0  0  0
  -17.9637   37.1539  -14.8778 C   0  0  0  0  0  0  0  0  0  0  0  0
  -17.7969   38.3780  -16.7980 C   0  0  0  0  0  0  0  0  0  0  0  0
  -17.5630   38.2651  -15.4923 N   0  0  0  0  0  0  0  0  0  0  0  0
  -17.7197   37.0206  -13.5230 N   0  0  0  0  0  0  0  0  0  0  0  0
  -17.3774   39.5243  -17.4485 N   0  0  0  0  0  0  0  0  0  0  0  0
  -17.4999   38.2140  -12.7379 C   0  0  0  0  0  0  0  0  0  0  0  0
  -18.0890   35.7780  -12.8801 C   0  0  0  0  0  0  0  0  0  0  0  0
  -17.4942   39.5863  -18.8888 C   0  0  0  0  0  0  0  0  0  0  0  0
  -17.2177   40.7366  -16.6759 C   0  0  0  0  0  0  0  0  0  0  0  0
  -23.4596   34.0498  -17.6411 H   0  0  0  0  0  0  0  0  0  0  0  0
  -23.3068   35.8195  -17.7778 H   0  0  0  0  0  0  0  0  0  0  0  0
  -23.4257   35.0587  -16.1714 H   0  0  0  0  0  0  0  0  0  0  0  0
  -21.7926   33.0392  -15.9084 H   0  0  0  0  0  0  0  0  0  0  0  0
  -20.3540   34.0053  -15.5145 H   0  0  0  0  0  0  0  0  0  0  0  0
  -20.3830   32.9952  -16.9894 H   0  0  0  0  0  0  0  0  0  0  0  0
  -16.6809   38.8182  -13.1450 H   0  0  0  0  0  0  0  0  0  0  0  0
  -18.4072   38.8271  -12.6961 H   0  0  0  0  0  0  0  0  0  0  0  0
  -17.2219   37.9642  -11.7080 H   0  0  0  0  0  0  0  0  0  0  0  0
  -17.6206   34.9166  -13.3698 H   0  0  0  0  0  0  0  0  0  0  0  0
  -19.1764   35.6432  -12.8846 H   0  0  0  0  0  0  0  0  0  0  0  0
  -17.7586   35.7609  -11.8355 H   0  0  0  0  0  0  0  0  0  0  0  0
  -16.9778   38.7481  -19.3703 H   0  0  0  0  0  0  0  0  0  0  0  0
  -18.5459   39.5808  -19.1961 H   0  0  0  0  0  0  0  0  0  0  0  0
  -17.0394   40.5016  -19.2836 H   0  0  0  0  0  0  0  0  0  0  0  0
  -16.5355   40.5879  -15.8309 H   0  0  0  0  0  0  0  0  0  0  0  0
  -18.1835   41.0883  -16.2960 H   0  0  0  0  0  0  0  0  0  0  0  0
  -16.7898   41.5405  -17.2850 H   0  0  0  0  0  0  0  0  0  0  0  0
  1  2  1  0  0  0  0
  1  3  1  0  0  0  0
  2  4  2  0  0  0  0
  3  5  2  0  0  0  0
  3  6  1  0  0  0  0
  4  7  1  0  0  0  0
  4  8  1  0  0  0  0
  5  9  1  0  0  0  0
  6 10  2  0  0  0  0
  7 18  1  0  0  0  0
  7 19  1  0  0  0  0
  7 20  1  0  0  0  0
  8 21  1  0  0  0  0
  8 22  1  0  0  0  0
  8 23  1  0  0  0  0
  9 11  2  0  0  0  0
  9 12  1  0  0  0  0
 10 13  1  0  0  0  0
 10 11  1  0  0  0  0
 12 14  1  0  0  0  0
 12 15  1  0  0  0  0
 13 16  1  0  0  0  0
 13 17  1  0  0  0  0
 14 24  1  0  0  0  0
 14 25  1  0  0  0  0
 14 26  1  0  0  0  0
 15 27  1  0  0  0  0
 15 28  1  0  0  0  0
 15 29  1  0  0  0  0
 16 30  1  0  0  0  0
 16 31  1  0  0  0  0
 16 32  1  0  0  0  0
 17 33  1  0  0  0  0
 17 34  1  0  0  0  0
 17 35  1  0  0  0  0
M  END
>  <Column 1>
CC(C)=NOc1nc(N(C)C)nc(N(C)C)n1 ZINC000000027644

>  <Total Molweight>
238.294

>  <cLogP>
1.6968

>  <cLogS>
-3.609

>  <H-Acceptors>
7

>  <H-Donors>
0

>  <Total Surface Area>
196.67

>  <MMFF94 Energy>
-161.42

> <Gold.Version>
5.8.1

> <Gold.Id.Protein>
ID|2FQT|mol2

> <Gold.PLP.Fitness>
44.0770

> <Gold.PLP.PLP>
-35.2226

> <Gold.PLP.part.hbond>
-5.2892

> <Gold.PLP.part.metal>
0.0000

> <Gold.PLP.part.buried>
-2.4397

> <Gold.PLP.part.nonpolar>
-26.9893

> <Gold.PLP.part.repulsive>
0.0680

> <Gold.PLP.ligand.clash>
0.0000

> <Gold.PLP.ligand.torsion>
0.5987

> <Gold.PLP.Chemscore.Hbond>
3.2976

> <Gold.PLP.Chemscore.CHOScore>
0.0000

> <Gold.PLP.Chemscore.Metal>
0.0000

> <Gold.Chemscore.Hbonds>
donor molecule, donor type, donor heavy atom, donor atom, acceptor molecule, acceptor atom, score
      P1  H  1223  2649       L1     2  0.98
      P1  H  1223  2650       L1     6  0.32
      P1  H  1230  2756       L1     6  1.00
      P1  H  1239  3336       L1     2  1.00

> <Gold.PLP.Chemscore.Internal.Correction>
0.1589

> <Gold.Protein.RotatedTorsions>
[ 3412  950  949  948 ] final   69.65 input   60.00 | X-H torsion
[ 3476 1244 1243 1240 ] final  -24.34 input   60.00 | X-H torsion
[ 2649 1223 1224 1225 ] final  -64.15 input   60.00 | X-H torsion
[ 4380 1912 1911 1909 ] final  172.75 input   60.00 | X-H torsion
[ 3084  621  620  617 ] final -176.14 input   60.00 | X-H torsion

> <Gold.Protein.ActiveResidues>
 HIS54   GLU57   HIS58   ALA61   PHE62   ILE64   ARG65   ASP75   ILE76   ILE77  
 ASP78   ILE79   SER80   PRO81   ILE118  PRO119  ALA120  ALA121  ASN122  LYS124 
 GLN125  CYS126  GLY127  CO701   VAL4    GLU5    SER6    PHE7    GLU8    LEU9   
 HIS11   ARG20   HIS21   CYS22   GLY23   VAL24   HIS25   LYS35   ARG39   MET82  
 GLY83   CYS84   TYR89  

> <Gold.Protein.RotatedAtoms>
  -21.1953   37.1853  -17.0176 H   0  0  0  0  0  0  0  0  0  0  0  0  # atno 2649 bound_to 1223
  -20.1708   38.4484  -17.3371 H   0  0  0  0  0  0  0  0  0  0  0  0  # atno 2650 bound_to 1223
  -18.3808   27.3460  -13.8205 H   0  0  0  0  0  0  0  0  0  0  0  0  # atno 3084 bound_to 621 
  -28.0165   37.5678  -28.5019 H   0  0  0  0  0  0  0  0  0  0  0  0  # atno 3412 bound_to 950 
  -27.8606   38.8697  -29.5158 H   0  0  0  0  0  0  0  0  0  0  0  0  # atno 3413 bound_to 950 
  -28.9533   38.9153  -28.2704 H   0  0  0  0  0  0  0  0  0  0  0  0  # atno 3414 bound_to 950 
  -24.0128   32.5631  -21.2302 H   0  0  0  0  0  0  0  0  0  0  0  0  # atno 3476 bound_to 1244
  -19.7170   31.6549  -20.0675 H   0  0  0  0  0  0  0  0  0  0  0  0  # atno 4380 bound_to 1912
  -24.0870   31.9810  -19.7125 LP  0  0  0  0  0  0  0  0  0  0  0  0  # atno 4866 bound_to 1244
  -22.8909   31.5025  -20.7159 LP  0  0  0  0  0  0  0  0  0  0  0  0  # atno 4867 bound_to 1244
  -21.2481   38.5482  -16.0976 LP  0  0  0  0  0  0  0  0  0  0  0  0  # atno 4874 bound_to 1223
  -20.7486   31.5857  -18.8110 LP  0  0  0  0  0  0  0  0  0  0  0  0  # atno 4875 bound_to 1912
  -20.9749   30.6236  -20.1109 LP  0  0  0  0  0  0  0  0  0  0  0  0  # atno 4876 bound_to 1912
  -18.4374   28.6796  -12.8897 LP  0  0  0  0  0  0  0  0  0  0  0  0  # atno 4881 bound_to 621 
  -19.7671   28.1899  -13.7014 LP  0  0  0  0  0  0  0  0  0  0  0  0  # atno 4882 bound_to 621 

$$$$
Compound 134|Decoys_protonated|sdf|134|dock3
  -GOLD-   6122416203D 1   1.00000     0.00000

 21 23  0  0  0  0  0  0  0  0  1 V2000
  -27.3403   30.2226  -19.4048 O   0  0  0  0  0  0  0  0  0  0  0  0
  -26.7083   31.3952  -18.9871 N   0  0  0  0  0  0  0  0  0  0  0  0
  -26.6401   29.0788  -19.0168 N   0  0  0  0  0  0  0  0  0  0  0  0
  -25.6192   30.9785  -18.3420 C   0  0  0  0  0  0  0  0  0  0  0  0
  -25.5780   29.5436  -18.3611 C   0  0  0  0  0  0  0  0  0  0  0  0
  -24.6761   31.7628  -17.7485 N   0  0  0  0  0  0  0  0  0  0  0  0
  -24.5859   28.8090  -17.7844 N   0  0  0  0  0  0  0  0  0  0  0  0
  -23.6735   31.0416  -17.1650 C   0  0  0  0  0  0  0  0  0  0  0  0
  -23.6582   29.6275  -17.1990 C   0  0  0  0  0  0  0  0  0  0  0  0
  -22.6159   31.8572  -16.5014 C   0  0  0  0  0  0  0  0  0  0  0  0
  -21.6183   31.2355  -15.7190 C   0  0  0  0  0  0  0  0  0  0  0  0
  -22.5411   33.2607  -16.6058 C   0  0  0  0  0  0  0  0  0  0  0  0
  -20.6097   31.9656  -15.0807 C   0  0  0  0  0  0  0  0  0  0  0  0
  -21.5323   33.9955  -15.9680 C   0  0  0  0  0  0  0  0  0  0  0  0
  -20.5674   33.3478  -15.2060 C   0  0  0  0  0  0  0  0  0  0  0  0
  -22.8560   29.0637  -16.7318 H   0  0  0  0  0  0  0  0  0  0  0  0
  -21.6138   30.1525  -15.5941 H   0  0  0  0  0  0  0  0  0  0  0  0
  -23.2612   33.8316  -17.1845 H   0  0  0  0  0  0  0  0  0  0  0  0
  -19.8603   31.4475  -14.4873 H   0  0  0  0  0  0  0  0  0  0  0  0
  -21.5035   35.0780  -16.0693 H   0  0  0  0  0  0  0  0  0  0  0  0
  -19.7854   33.9179  -14.7116 H   0  0  0  0  0  0  0  0  0  0  0  0
  1  2  1  0  0  0  0
  1  3  1  0  0  0  0
  2  4  2  0  0  0  0
  3  5  2  0  0  0  0
  4  6  1  0  0  0  0
  4  5  1  0  0  0  0
  5  7  1  0  0  0  0
  6  8  2  0  0  0  0
  7  9  2  0  0  0  0
  8 10  1  0  0  0  0
  8  9  1  0  0  0  0
  9 16  1  0  0  0  0
 10 11  2  0  0  0  0
 10 12  1  0  0  0  0
 11 13  1  0  0  0  0
 11 17  1  0  0  0  0
 12 14  2  0  0  0  0
 12 18  1  0  0  0  0
 13 15  2  0  0  0  0
 13 19  1  0  0  0  0
 14 15  1  0  0  0  0
 14 20  1  0  0  0  0
 15 21  1  0  0  0  0
M  END
>  <Column 1>
c1ccc(-c2cnc3nonc3n2)cc1 ZINC000000027762

>  <Total Molweight>
198.185

>  <cLogP>
1.9245

>  <cLogS>
-3.133

>  <H-Acceptors>
5

>  <H-Donors>
0

>  <Total Surface Area>
152.35

>  <MMFF94 Energy>
90.899

> <Gold.Version>
5.8.1

> <Gold.Id.Protein>
ID|2FQT|mol2

> <Gold.PLP.Fitness>
47.4808

> <Gold.PLP.PLP>
-35.1195

> <Gold.PLP.part.hbond>
-1.8080

> <Gold.PLP.part.metal>
-2.5429

> <Gold.PLP.part.buried>
-1.8729

> <Gold.PLP.part.nonpolar>
-29.1972

> <Gold.PLP.part.repulsive>
0.3893

> <Gold.PLP.ligand.clash>
0.0000

> <Gold.PLP.ligand.torsion>
0.0298

> <Gold.PLP.Chemscore.Hbond>
0.1022

> <Gold.PLP.Chemscore.CHOScore>
0.1582

> <Gold.PLP.Chemscore.Metal>
1.9399

> <Gold.Chemscore.Hbonds>
donor molecule, donor type, donor heavy atom, donor atom, acceptor molecule, acceptor atom, score
      P1  H  1244  3476       L1     6  0.10
      L1  C     9    16       P1   427  0.16
      P1  M  1222  1222       L1     2  0.94
      P1  M  1222  1222       L1     3  1.00

> <Gold.PLP.Chemscore.Internal.Correction>
0.0000

> <Gold.Protein.RotatedTorsions>
[ 3412  950  949  948 ] final  -94.18 input   60.00 | X-H torsion
[ 3476 1244 1243 1240 ] final -171.34 input   60.00 | X-H torsion
[ 2649 1223 1224 1225 ] final -131.70 input   60.00 | X-H torsion
[ 4380 1912 1911 1909 ] final   49.29 input   60.00 | X-H torsion
[ 3084  621  620  617 ] final -133.41 input   60.00 | X-H torsion

> <Gold.Protein.ActiveResidues>
 HIS54   GLU57   HIS58   ALA61   PHE62   ILE64   ARG65   ASP75   ILE76   ILE77  
 ASP78   ILE79   SER80   PRO81   ILE118  PRO119  ALA120  ALA121  ASN122  LYS124 
 GLN125  CYS126  GLY127  CO701   VAL4    GLU5    SER6    PHE7    GLU8    LEU9   
 HIS11   ARG20   HIS21   CYS22   GLY23   VAL24   HIS25   LYS35   ARG39   MET82  
 GLY83   CYS84   TYR89  

> <Gold.Protein.RotatedAtoms>
  -21.5716   37.7836  -16.2223 H   0  0  0  0  0  0  0  0  0  0  0  0  # atno 2649 bound_to 1223
  -20.5750   37.4797  -17.5113 H   0  0  0  0  0  0  0  0  0  0  0  0  # atno 2650 bound_to 1223
  -19.0254   27.3474  -14.0433 H   0  0  0  0  0  0  0  0  0  0  0  0  # atno 3084 bound_to 621 
  -28.7025   39.3065  -28.8129 H   0  0  0  0  0  0  0  0  0  0  0  0  # atno 3412 bound_to 950 
  -28.5260   37.8321  -28.0766 H   0  0  0  0  0  0  0  0  0  0  0  0  # atno 3413 bound_to 950 
  -27.6020   38.2142  -29.3985 H   0  0  0  0  0  0  0  0  0  0  0  0  # atno 3414 bound_to 950 
  -23.7440   31.7102  -19.6735 H   0  0  0  0  0  0  0  0  0  0  0  0  # atno 3476 bound_to 1244
  -20.7886   31.5456  -18.8189 H   0  0  0  0  0  0  0  0  0  0  0  0  # atno 4380 bound_to 1912
  -22.9568   31.7116  -21.0977 LP  0  0  0  0  0  0  0  0  0  0  0  0  # atno 4866 bound_to 1244
  -24.2918   32.6308  -20.8985 LP  0  0  0  0  0  0  0  0  0  0  0  0  # atno 4867 bound_to 1244
  -20.4791   38.9132  -16.7095 LP  0  0  0  0  0  0  0  0  0  0  0  0  # atno 4874 bound_to 1223
  -20.9379   30.6273  -20.1540 LP  0  0  0  0  0  0  0  0  0  0  0  0  # atno 4875 bound_to 1912
  -19.7065   31.6920  -20.0254 LP  0  0  0  0  0  0  0  0  0  0  0  0  # atno 4876 bound_to 1912
  -18.0051   28.1859  -13.0926 LP  0  0  0  0  0  0  0  0  0  0  0  0  # atno 4881 bound_to 621 
  -19.5502   28.6821  -13.2742 LP  0  0  0  0  0  0  0  0  0  0  0  0  # atno 4882 bound_to 621 

$$$$
Compound 135|Decoys_protonated|sdf|135|dock3
  -GOLD-   6122416203D 1   1.00000     0.00000

 23 24  0  0  0  0  0  0  0  0  1 V2000
  -20.7015   34.7968  -16.8797 Br  0  0  0  0  0  0  0  0  0  0  0  0
  -21.1311   33.0275  -16.3707 C   0  0  0  0  0  0  0  0  0  0  0  0
  -22.2419   32.3986  -16.9317 C   0  0  0  0  0  0  0  0  0  0  0  0
  -20.3345   32.3654  -15.4373 C   0  0  0  0  0  0  0  0  0  0  0  0
  -22.5629   31.0914  -16.5462 C   0  0  0  0  0  0  0  0  0  0  0  0
  -20.6444   31.0556  -15.0647 C   0  0  0  0  0  0  0  0  0  0  0  0
  -21.7535   30.4178  -15.6235 C   0  0  0  0  0  0  0  0  0  0  0  0
  -23.7669   30.4889  -17.1590 C   0  0  0  0  0  0  0  0  0  0  0  0
  -22.0026   29.1159  -15.2991 O   0  0  0  0  0  0  0  0  0  0  0  0
  -24.2787   30.9252  -18.2632 N   0  0  0  0  0  0  0  0  0  0  0  0
  -25.4070   30.2797  -18.6556 N   0  0  0  0  0  0  0  0  0  0  0  0
  -26.2520   29.7731  -17.7387 N   0  0  0  0  0  0  0  0  0  0  0  0
  -25.8994   29.9583  -19.9279 C   0  0  0  0  0  0  0  0  0  0  0  0
  -27.2749   29.2786  -18.4219 N   0  0  0  0  0  0  0  0  0  0  0  0
  -27.0755   29.3922  -19.7751 N   0  0  0  0  0  0  0  0  0  0  0  0
  -25.2316   30.1708  -21.0841 N   0  0  0  0  0  0  0  0  0  0  0  0
  -22.8623   32.9314  -17.6476 H   0  0  0  0  0  0  0  0  0  0  0  0
  -19.4678   32.8563  -15.0009 H   0  0  0  0  0  0  0  0  0  0  0  0
  -20.0024   30.5432  -14.3533 H   0  0  0  0  0  0  0  0  0  0  0  0
  -24.1598   29.5946  -16.6375 H   0  0  0  0  0  0  0  0  0  0  0  0
  -22.9315   29.0157  -15.0340 H   0  0  0  0  0  0  0  0  0  0  0  0
  -24.3084   30.5908  -21.0533 H   0  0  0  0  0  0  0  0  0  0  0  0
  -25.6857   30.1460  -21.9906 H   0  0  0  0  0  0  0  0  0  0  0  0
  1  2  1  0  0  0  0
  2  3  2  0  0  0  0
  2  4  1  0  0  0  0
  3  5  1  0  0  0  0
  3 17  1  0  0  0  0
  4  6  2  0  0  0  0
  4 18  1  0  0  0  0
  5  7  2  0  0  0  0
  5  8  1  0  0  0  0
  6  7  1  0  0  0  0
  6 19  1  0  0  0  0
  7  9  1  0  0  0  0
  8 10  2  0  0  0  0
  8 20  1  0  0  0  0
  9 21  1  0  0  0  0
 10 11  1  0  0  0  0
 11 12  1  0  0  0  0
 11 13  1  0  0  0  0
 12 14  2  0  0  0  0
 13 15  2  0  0  0  0
 13 16  1  0  0  0  0
 14 15  1  0  0  0  0
 16 22  1  0  0  0  0
 16 23  1  0  0  0  0
M  END
>  <Column 1>
Nc1nnnn1/N=C/c1cc(Br)ccc1O ZINC000000027999

>  <Total Molweight>
283.089

>  <cLogP>
1.606

>  <cLogS>
-4.325

>  <H-Acceptors>
7

>  <H-Donors>
2

>  <Total Surface Area>
176.76

>  <MMFF94 Energy>
70.497

> <Gold.Version>
5.8.1

> <Gold.Id.Protein>
ID|2FQT|mol2

> <Gold.PLP.Fitness>
69.0853

> <Gold.PLP.PLP>
-39.7491

> <Gold.PLP.part.hbond>
-4.6241

> <Gold.PLP.part.metal>
-2.2102

> <Gold.PLP.part.buried>
-7.1201

> <Gold.PLP.part.nonpolar>
-27.5065

> <Gold.PLP.part.repulsive>
0.5188

> <Gold.PLP.ligand.clash>
0.0000

> <Gold.PLP.ligand.torsion>
0.3169

> <Gold.PLP.Chemscore.Hbond>
3.9920

> <Gold.PLP.Chemscore.CHOScore>
0.0000

> <Gold.PLP.Chemscore.Metal>
2.9986

> <Gold.Chemscore.Hbonds>
donor molecule, donor type, donor heavy atom, donor atom, acceptor molecule, acceptor atom, score
      L1  H     9    21       P1   427  0.99
      L1  H    16    23       P1  1290  1.00
      P1  H   966  3428       L1    15  1.00
      P1  H  1244  3476       L1    10  1.00
      P1  M  1222  1222       L1    12  1.00
      P1  M  1222  1222       L1    14  1.00
      P1  M  1222  1222       L1    15  1.00

> <Gold.PLP.Chemscore.Internal.Correction>
0.0023

> <Gold.Protein.RotatedTorsions>
[ 3412  950  949  948 ] final  -91.61 input   60.00 | X-H torsion
[ 3476 1244 1243 1240 ] final -179.04 input   60.00 | X-H torsion
[ 2649 1223 1224 1225 ] final   19.92 input   60.00 | X-H torsion
[ 4380 1912 1911 1909 ] final -160.46 input   60.00 | X-H torsion
[ 3084  621  620  617 ] final -149.84 input   60.00 | X-H torsion

> <Gold.Protein.ActiveResidues>
 HIS54   GLU57   HIS58   ALA61   PHE62   ILE64   ARG65   ASP75   ILE76   ILE77  
 ASP78   ILE79   SER80   PRO81   ILE118  PRO119  ALA120  ALA121  ASN122  LYS124 
 GLN125  CYS126  GLY127  CO701   VAL4    GLU5    SER6    PHE7    GLU8    LEU9   
 HIS11   ARG20   HIS21   CYS22   GLY23   VAL24   HIS25   LYS35   ARG39   MET82  
 GLY83   CYS84   TYR89  

> <Gold.Protein.RotatedAtoms>
  -20.2856   37.9114  -17.5537 H   0  0  0  0  0  0  0  0  0  0  0  0  # atno 2649 bound_to 1223
  -20.8312   38.8881  -16.3307 H   0  0  0  0  0  0  0  0  0  0  0  0  # atno 2650 bound_to 1223
  -18.7683   27.2965  -13.9904 H   0  0  0  0  0  0  0  0  0  0  0  0  # atno 3084 bound_to 621 
  -28.7260   39.2957  -28.7786 H   0  0  0  0  0  0  0  0  0  0  0  0  # atno 3412 bound_to 950 
  -28.4972   37.8044  -28.0925 H   0  0  0  0  0  0  0  0  0  0  0  0  # atno 3413 bound_to 950 
  -27.6073   38.2527  -29.4170 H   0  0  0  0  0  0  0  0  0  0  0  0  # atno 3414 bound_to 950 
  -23.6408   31.6424  -19.6967 H   0  0  0  0  0  0  0  0  0  0  0  0  # atno 3476 bound_to 1244
  -19.8571   31.3669  -20.3600 H   0  0  0  0  0  0  0  0  0  0  0  0  # atno 4380 bound_to 1912
  -23.0054   31.7859  -21.1880 LP  0  0  0  0  0  0  0  0  0  0  0  0  # atno 4866 bound_to 1244
  -24.3471   32.6248  -20.7848 LP  0  0  0  0  0  0  0  0  0  0  0  0  # atno 4867 bound_to 1244
  -21.4937   37.3998  -16.5609 LP  0  0  0  0  0  0  0  0  0  0  0  0  # atno 4874 bound_to 1223
  -20.3913   31.8234  -18.8923 LP  0  0  0  0  0  0  0  0  0  0  0  0  # atno 4875 bound_to 1912
  -21.1912   30.6759  -19.7350 LP  0  0  0  0  0  0  0  0  0  0  0  0  # atno 4876 bound_to 1912
  -18.1255   28.3997  -12.9816 LP  0  0  0  0  0  0  0  0  0  0  0  0  # atno 4881 bound_to 621 
  -19.6887   28.5197  -13.4384 LP  0  0  0  0  0  0  0  0  0  0  0  0  # atno 4882 bound_to 621 

$$$$
Compound 136|Decoys_protonated|sdf|136|dock1
  -GOLD-   6122416203D 1   1.00000     0.00000

 30 31  0  0  0  0  0  0  0  0  1 V2000
  -20.8844   34.1759  -16.1560 O   0  0  0  0  0  0  0  0  0  0  0  0
  -21.3034   32.8796  -16.0149 C   0  0  0  0  0  0  0  0  0  0  0  0
  -21.4939   34.9702  -17.1690 C   0  0  0  0  0  0  0  0  0  0  0  0
  -20.4965   32.0537  -15.2161 C   0  0  0  0  0  0  0  0  0  0  0  0
  -22.4491   32.3385  -16.6044 C   0  0  0  0  0  0  0  0  0  0  0  0
  -22.9035   35.3064  -16.7165 C   0  0  0  0  0  0  0  0  0  0  0  0
  -19.3713   32.5796  -14.6392 O   0  0  0  0  0  0  0  0  0  0  0  0
  -20.8213   30.7143  -14.9998 C   0  0  0  0  0  0  0  0  0  0  0  0
  -22.7750   30.9929  -16.3901 C   0  0  0  0  0  0  0  0  0  0  0  0
  -21.9663   30.1816  -15.5894 C   0  0  0  0  0  0  0  0  0  0  0  0
  -23.9886   30.4452  -17.0336 C   0  0  0  0  0  0  0  0  0  0  0  0
  -24.2443   30.6596  -18.2825 N   0  0  0  0  0  0  0  0  0  0  0  0
  -25.4165   30.1269  -18.7231 N   0  0  0  0  0  0  0  0  0  0  0  0
  -26.3347   29.7037  -17.8355 N   0  0  0  0  0  0  0  0  0  0  0  0
  -25.8935   29.8469  -20.0113 C   0  0  0  0  0  0  0  0  0  0  0  0
  -27.3778   29.3092  -18.5518 N   0  0  0  0  0  0  0  0  0  0  0  0
  -27.1235   29.3984  -19.8972 N   0  0  0  0  0  0  0  0  0  0  0  0
  -25.1730   29.9805  -21.1477 N   0  0  0  0  0  0  0  0  0  0  0  0
  -21.5441   34.4139  -18.1122 H   0  0  0  0  0  0  0  0  0  0  0  0
  -20.9322   35.9006  -17.3099 H   0  0  0  0  0  0  0  0  0  0  0  0
  -23.0943   32.9455  -17.2295 H   0  0  0  0  0  0  0  0  0  0  0  0
  -23.4169   35.9193  -17.4627 H   0  0  0  0  0  0  0  0  0  0  0  0
  -23.4832   34.3924  -16.5501 H   0  0  0  0  0  0  0  0  0  0  0  0
  -22.8841   35.8491  -15.7657 H   0  0  0  0  0  0  0  0  0  0  0  0
  -18.6854   31.8957  -14.5899 H   0  0  0  0  0  0  0  0  0  0  0  0
  -20.1990   30.0765  -14.3795 H   0  0  0  0  0  0  0  0  0  0  0  0
  -22.2218   29.1377  -15.4195 H   0  0  0  0  0  0  0  0  0  0  0  0
  -24.6372   29.8259  -16.3854 H   0  0  0  0  0  0  0  0  0  0  0  0
  -24.2133   30.3065  -21.0853 H   0  0  0  0  0  0  0  0  0  0  0  0
  -25.5895   29.9916  -22.0713 H   0  0  0  0  0  0  0  0  0  0  0  0
  1  2  1  0  0  0  0
  1  3  1  0  0  0  0
  2  4  2  0  0  0  0
  2  5  1  0  0  0  0
  3  6  1  0  0  0  0
  3 19  1  0  0  0  0
  3 20  1  0  0  0  0
  4  7  1  0  0  0  0
  4  8  1  0  0  0  0
  5  9  2  0  0  0  0
  5 21  1  0  0  0  0
  6 22  1  0  0  0  0
  6 23  1  0  0  0  0
  6 24  1  0  0  0  0
  7 25  1  0  0  0  0
  8 10  2  0  0  0  0
  8 26  1  0  0  0  0
  9 11  1  0  0  0  0
  9 10  1  0  0  0  0
 10 27  1  0  0  0  0
 11 12  2  0  0  0  0
 11 28  1  0  0  0  0
 12 13  1  0  0  0  0
 13 14  1  0  0  0  0
 13 15  1  0  0  0  0
 14 16  2  0  0  0  0
 15 17  2  0  0  0  0
 15 18  1  0  0  0  0
 16 17  1  0  0  0  0
 18 29  1  0  0  0  0
 18 30  1  0  0  0  0
M  END
>  <Column 1>
CCOc1cc(/C=N/n2nnnc2N)ccc1O ZINC000000028011

>  <Total Molweight>
248.245

>  <cLogP>
1.2171

>  <cLogS>
-3.809

>  <H-Acceptors>
8

>  <H-Donors>
2

>  <Total Surface Area>
194.15

>  <MMFF94 Energy>
73.957

> <Gold.Version>
5.8.1

> <Gold.Id.Protein>
ID|2FQT|mol2

> <Gold.PLP.Fitness>
75.8651

> <Gold.PLP.PLP>
-47.0754

> <Gold.PLP.part.hbond>
-5.0000

> <Gold.PLP.part.metal>
-2.1171

> <Gold.PLP.part.buried>
-6.7333

> <Gold.PLP.part.nonpolar>
-35.3798

> <Gold.PLP.part.repulsive>
0.5435

> <Gold.PLP.ligand.clash>
0.0000

> <Gold.PLP.ligand.torsion>
0.6475

> <Gold.PLP.Chemscore.Hbond>
4.0000

> <Gold.PLP.Chemscore.CHOScore>
0.0000

> <Gold.PLP.Chemscore.Metal>
3.0000

> <Gold.Chemscore.Hbonds>
donor molecule, donor type, donor heavy atom, donor atom, acceptor molecule, acceptor atom, score
      L1  H     7    25       P1   606  1.00
      L1  H    18    30       P1  1290  1.00
      P1  H   966  3428       L1    17  1.00
      P1  H  1244  3476       L1    12  1.00
      P1  M  1222  1222       L1    14  1.00
      P1  M  1222  1222       L1    16  1.00
      P1  M  1222  1222       L1    17  1.00

> <Gold.PLP.Chemscore.Internal.Correction>
0.0846

> <Gold.Protein.RotatedTorsions>
[ 3412  950  949  948 ] final  113.15 input   60.00 | X-H torsion
[ 3476 1244 1243 1240 ] final -171.88 input   60.00 | X-H torsion
[ 2649 1223 1224 1225 ] final   -7.76 input   60.00 | X-H torsion
[ 4380 1912 1911 1909 ] final  145.00 input   60.00 | X-H torsion
[ 3084  621  620  617 ] final  -41.09 input   60.00 | X-H torsion

> <Gold.Protein.ActiveResidues>
 HIS54   GLU57   HIS58   ALA61   PHE62   ILE64   ARG65   ASP75   ILE76   ILE77  
 ASP78   ILE79   SER80   PRO81   ILE118  PRO119  ALA120  ALA121  ASN122  LYS124 
 GLN125  CYS126  GLY127  CO701   VAL4    GLU5    SER6    PHE7    GLU8    LEU9   
 HIS11   ARG20   HIS21   CYS22   GLY23   VAL24   HIS25   LYS35   ARG39   MET82  
 GLY83   CYS84   TYR89  

> <Gold.Protein.RotatedAtoms>
  -20.5319   37.5264  -17.5288 H   0  0  0  0  0  0  0  0  0  0  0  0  # atno 2649 bound_to 1223
  -20.5103   38.9340  -16.6539 H   0  0  0  0  0  0  0  0  0  0  0  0  # atno 2650 bound_to 1223
  -19.7395   28.3828  -13.5509 H   0  0  0  0  0  0  0  0  0  0  0  0  # atno 3084 bound_to 621 
  -27.6537   37.7923  -29.0686 H   0  0  0  0  0  0  0  0  0  0  0  0  # atno 3412 bound_to 950 
  -28.3474   39.2903  -29.2169 H   0  0  0  0  0  0  0  0  0  0  0  0  # atno 3413 bound_to 950 
  -28.8294   38.2703  -28.0026 H   0  0  0  0  0  0  0  0  0  0  0  0  # atno 3414 bound_to 950 
  -23.7368   31.7053  -19.6746 H   0  0  0  0  0  0  0  0  0  0  0  0  # atno 3476 bound_to 1244
  -19.7440   31.8695  -19.6740 H   0  0  0  0  0  0  0  0  0  0  0  0  # atno 4380 bound_to 1912
  -22.9598   31.7166  -21.1043 LP  0  0  0  0  0  0  0  0  0  0  0  0  # atno 4866 bound_to 1244
  -24.2960   32.6307  -20.8907 LP  0  0  0  0  0  0  0  0  0  0  0  0  # atno 4867 bound_to 1244
  -21.5671   37.7338  -16.2670 LP  0  0  0  0  0  0  0  0  0  0  0  0  # atno 4874 bound_to 1223
  -21.0569   31.2732  -18.9198 LP  0  0  0  0  0  0  0  0  0  0  0  0  # atno 4875 bound_to 1912
  -20.6394   30.7199  -20.3984 LP  0  0  0  0  0  0  0  0  0  0  0  0  # atno 4876 bound_to 1912
  -18.5927   27.2938  -13.9344 LP  0  0  0  0  0  0  0  0  0  0  0  0  # atno 4881 bound_to 621 
  -18.2434   28.5316  -12.9282 LP  0  0  0  0  0  0  0  0  0  0  0  0  # atno 4882 bound_to 621 

$$$$
Compound 137|Decoys_protonated|sdf|137|dock5
  -GOLD-   6122416203D 1   1.00000     0.00000

 22 22  0  0  0  0  0  0  0  0  1 V2000
  -21.3808   32.6465  -14.7106 S   0  0  0  0  0  0  0  0  0  0  0  0
  -21.9286   31.2080  -15.3822 C   0  0  0  0  0  0  0  0  0  0  0  0
  -21.2265   30.0458  -15.1018 N   0  0  0  0  0  0  0  0  0  0  0  0
  -23.1257   31.1387  -16.2558 C   0  0  0  0  0  0  0  0  0  0  0  0
  -20.0847   30.0020  -14.2898 N   0  0  0  0  0  0  0  0  0  0  0  0
  -23.2986   30.0469  -17.1133 C   0  0  0  0  0  0  0  0  0  0  0  0
  -24.0874   32.1524  -16.2170 C   0  0  0  0  0  0  0  0  0  0  0  0
  -24.4267   29.9710  -17.9373 C   0  0  0  0  0  0  0  0  0  0  0  0
  -25.2112   32.0704  -17.0428 C   0  0  0  0  0  0  0  0  0  0  0  0
  -25.3876   30.9833  -17.9048 C   0  0  0  0  0  0  0  0  0  0  0  0
  -26.5295   31.0323  -18.6559 O   0  0  0  0  0  0  0  0  0  0  0  0
  -26.4879   30.4039  -19.9309 C   0  0  0  0  0  0  0  0  0  0  0  0
  -21.5881   29.1897  -15.5246 H   0  0  0  0  0  0  0  0  0  0  0  0
  -19.9002   29.0320  -14.0230 H   0  0  0  0  0  0  0  0  0  0  0  0
  -20.2867   30.4891  -13.4114 H   0  0  0  0  0  0  0  0  0  0  0  0
  -22.5539   29.2547  -17.1439 H   0  0  0  0  0  0  0  0  0  0  0  0
  -23.9718   33.0059  -15.5541 H   0  0  0  0  0  0  0  0  0  0  0  0
  -24.5222   29.1100  -18.5902 H   0  0  0  0  0  0  0  0  0  0  0  0
  -25.9595   32.8591  -17.0125 H   0  0  0  0  0  0  0  0  0  0  0  0
  -25.7568   30.8891  -20.5858 H   0  0  0  0  0  0  0  0  0  0  0  0
  -27.4740   30.5171  -20.3914 H   0  0  0  0  0  0  0  0  0  0  0  0
  -26.2855   29.3318  -19.8367 H   0  0  0  0  0  0  0  0  0  0  0  0
  1  2  2  0  0  0  0
  2  3  1  0  0  0  0
  2  4  1  0  0  0  0
  3  5  1  0  0  0  0
  3 13  1  0  0  0  0
  4  6  2  0  0  0  0
  4  7  1  0  0  0  0
  5 14  1  0  0  0  0
  5 15  1  0  0  0  0
  6  8  1  0  0  0  0
  6 16  1  0  0  0  0
  7  9  2  0  0  0  0
  7 17  1  0  0  0  0
  8 10  2  0  0  0  0
  8 18  1  0  0  0  0
  9 10  1  0  0  0  0
  9 19  1  0  0  0  0
 10 11  1  0  0  0  0
 11 12  1  0  0  0  0
 12 20  1  0  0  0  0
 12 21  1  0  0  0  0
 12 22  1  0  0  0  0
M  END
>  <Column 1>
COc1ccc(C(=S)NN)cc1 ZINC000000028271

>  <Total Molweight>
182.246

>  <cLogP>
0.6107

>  <cLogS>
-1.93

>  <H-Acceptors>
3

>  <H-Donors>
2

>  <Total Surface Area>
148.21

>  <MMFF94 Energy>
81.163

> <Gold.Version>
5.8.1

> <Gold.Id.Protein>
ID|2FQT|mol2

> <Gold.PLP.Fitness>
46.4887

> <Gold.PLP.PLP>
-35.6140

> <Gold.PLP.part.hbond>
-3.0000

> <Gold.PLP.part.metal>
-1.0000

> <Gold.PLP.part.buried>
-2.5967

> <Gold.PLP.part.nonpolar>
-30.2308

> <Gold.PLP.part.repulsive>
0.0634

> <Gold.PLP.ligand.clash>
0.0000

> <Gold.PLP.ligand.torsion>
0.5585

> <Gold.PLP.Chemscore.Hbond>
2.0000

> <Gold.PLP.Chemscore.CHOScore>
0.0000

> <Gold.PLP.Chemscore.Metal>
0.9986

> <Gold.Chemscore.Hbonds>
donor molecule, donor type, donor heavy atom, donor atom, acceptor molecule, acceptor atom, score
      L1  H     5    14       P1   621  1.00
      L1  H     5    15       P1   611  1.00
      P1  M  1222  1222       L1    11  1.00

> <Gold.PLP.Chemscore.Internal.Correction>
0.0001

> <Gold.Protein.RotatedTorsions>
[ 3412  950  949  948 ] final  -57.09 input   60.00 | X-H torsion
[ 3476 1244 1243 1240 ] final   49.01 input   60.00 | X-H torsion
[ 2649 1223 1224 1225 ] final  150.12 input   60.00 | X-H torsion
[ 4380 1912 1911 1909 ] final  165.48 input   60.00 | X-H torsion
[ 3084  621  620  617 ] final  176.92 input   60.00 | X-H torsion

> <Gold.Protein.ActiveResidues>
 HIS54   GLU57   HIS58   ALA61   PHE62   ILE64   ARG65   ASP75   ILE76   ILE77  
 ASP78   ILE79   SER80   PRO81   ILE118  PRO119  ALA120  ALA121  ASN122  LYS124 
 GLN125  CYS126  GLY127  CO701   VAL4    GLU5    SER6    PHE7    GLU8    LEU9   
 HIS11   ARG20   HIS21   CYS22   GLY23   VAL24   HIS25   LYS35   ARG39   MET82  
 GLY83   CYS84   TYR89  

> <Gold.Protein.RotatedAtoms>
  -20.9561   38.8214  -16.2360 H   0  0  0  0  0  0  0  0  0  0  0  0  # atno 2649 bound_to 1223
  -21.4338   37.2986  -16.6832 H   0  0  0  0  0  0  0  0  0  0  0  0  # atno 2650 bound_to 1223
  -18.2922   27.3852  -13.7617 H   0  0  0  0  0  0  0  0  0  0  0  0  # atno 3084 bound_to 621 
  -28.9381   39.0004  -28.3425 H   0  0  0  0  0  0  0  0  0  0  0  0  # atno 3412 bound_to 950 
  -28.0924   37.5769  -28.4193 H   0  0  0  0  0  0  0  0  0  0  0  0  # atno 3413 bound_to 950 
  -27.8001   38.7755  -29.5263 H   0  0  0  0  0  0  0  0  0  0  0  0  # atno 3414 bound_to 950 
  -23.1066   31.9114  -21.2989 H   0  0  0  0  0  0  0  0  0  0  0  0  # atno 3476 bound_to 1244
  -19.7067   31.7218  -19.9699 H   0  0  0  0  0  0  0  0  0  0  0  0  # atno 4380 bound_to 1912
  -24.4085   32.5939  -20.6009 LP  0  0  0  0  0  0  0  0  0  0  0  0  # atno 4866 bound_to 1244
  -23.4820   31.5459  -19.7583 LP  0  0  0  0  0  0  0  0  0  0  0  0  # atno 4867 bound_to 1244
  -20.2394   38.0692  -17.5117 LP  0  0  0  0  0  0  0  0  0  0  0  0  # atno 4874 bound_to 1223
  -20.8388   31.5076  -18.8208 LP  0  0  0  0  0  0  0  0  0  0  0  0  # atno 4875 bound_to 1912
  -20.8952   30.6343  -20.1995 LP  0  0  0  0  0  0  0  0  0  0  0  0  # atno 4876 bound_to 1912
  -18.5375   28.7343  -12.8854 LP  0  0  0  0  0  0  0  0  0  0  0  0  # atno 4881 bound_to 621 
  -19.7562   28.0957  -13.7649 LP  0  0  0  0  0  0  0  0  0  0  0  0  # atno 4882 bound_to 621 

$$$$
Compound 138|Decoys_protonated|sdf|138|dock2
  -GOLD-   6122416203D 1   1.00000     0.00000

 31 32  0  0  0  0  0  0  0  0  1 V2000
  -19.6125   34.4100  -17.3800 S   0  0  0  0  0  0  0  0  0  0  0  0
  -19.8633   35.6398  -18.1019 O   0  0  0  0  0  0  0  0  0  0  0  0
  -18.9313   33.2999  -18.0130 O   0  0  0  0  0  0  0  0  0  0  0  0
  -18.7658   34.8011  -15.9640 N   0  0  0  0  0  0  0  0  0  0  0  0
  -21.1782   33.8090  -16.7833 C   0  0  0  0  0  0  0  0  0  0  0  0
  -18.1710   36.1648  -15.8853 C   0  0  0  0  0  0  0  0  0  0  0  0
  -19.3935   34.4118  -14.6702 C   0  0  0  0  0  0  0  0  0  0  0  0
  -21.2988   32.4775  -16.3772 C   0  0  0  0  0  0  0  0  0  0  0  0
  -22.2897   34.6557  -16.7834 C   0  0  0  0  0  0  0  0  0  0  0  0
  -17.1857   36.2209  -14.7111 C   0  0  0  0  0  0  0  0  0  0  0  0
  -18.3581   34.5399  -13.5459 C   0  0  0  0  0  0  0  0  0  0  0  0
  -22.5334   32.0030  -15.9312 C   0  0  0  0  0  0  0  0  0  0  0  0
  -23.5213   34.1749  -16.3363 C   0  0  0  0  0  0  0  0  0  0  0  0
  -17.8330   35.8755  -13.4759 O   0  0  0  0  0  0  0  0  0  0  0  0
  -23.6542   32.8446  -15.9150 C   0  0  0  0  0  0  0  0  0  0  0  0
  -24.9734   32.3391  -15.4079 C   0  0  0  0  0  0  0  0  0  0  0  0
  -18.9689   36.8980  -15.7249 H   0  0  0  0  0  0  0  0  0  0  0  0
  -17.6371   36.4080  -16.8086 H   0  0  0  0  0  0  0  0  0  0  0  0
  -19.7499   33.3784  -14.7084 H   0  0  0  0  0  0  0  0  0  0  0  0
  -20.2379   35.0784  -14.4636 H   0  0  0  0  0  0  0  0  0  0  0  0
  -20.4436   31.8060  -16.4078 H   0  0  0  0  0  0  0  0  0  0  0  0
  -22.2074   35.6832  -17.1308 H   0  0  0  0  0  0  0  0  0  0  0  0
  -16.3372   35.5450  -14.8717 H   0  0  0  0  0  0  0  0  0  0  0  0
  -16.7905   37.2360  -14.6053 H   0  0  0  0  0  0  0  0  0  0  0  0
  -18.8260   34.3171  -12.5819 H   0  0  0  0  0  0  0  0  0  0  0  0
  -17.5288   33.8364  -13.6874 H   0  0  0  0  0  0  0  0  0  0  0  0
  -22.6201   30.9680  -15.6061 H   0  0  0  0  0  0  0  0  0  0  0  0
  -24.3820   34.8411  -16.3283 H   0  0  0  0  0  0  0  0  0  0  0  0
  -25.8048   32.8507  -15.9043 H   0  0  0  0  0  0  0  0  0  0  0  0
  -25.0850   31.2684  -15.6091 H   0  0  0  0  0  0  0  0  0  0  0  0
  -25.0478   32.5065  -14.3291 H   0  0  0  0  0  0  0  0  0  0  0  0
  1  2  2  0  0  0  0
  1  3  2  0  0  0  0
  1  4  1  0  0  0  0
  1  5  1  0  0  0  0
  4  6  1  0  0  0  0
  4  7  1  0  0  0  0
  5  8  2  0  0  0  0
  5  9  1  0  0  0  0
  6 10  1  0  0  0  0
  6 17  1  0  0  0  0
  6 18  1  0  0  0  0
  7 11  1  0  0  0  0
  7 19  1  0  0  0  0
  7 20  1  0  0  0  0
  8 12  1  0  0  0  0
  8 21  1  0  0  0  0
  9 13  2  0  0  0  0
  9 22  1  0  0  0  0
 10 14  1  0  0  0  0
 10 23  1  0  0  0  0
 10 24  1  0  0  0  0
 11 14  1  0  0  0  0
 11 25  1  0  0  0  0
 11 26  1  0  0  0  0
 12 15  2  0  0  0  0
 12 27  1  0  0  0  0
 13 15  1  0  0  0  0
 13 28  1  0  0  0  0
 15 16  1  0  0  0  0
 16 29  1  0  0  0  0
 16 30  1  0  0  0  0
 16 31  1  0  0  0  0
M  END
>  <Column 1>
Cc1ccc(S(=O)(=O)N2CCOCC2)cc1 ZINC000000028343

>  <Total Molweight>
241.31

>  <cLogP>
1.0463

>  <cLogS>
-1.166

>  <H-Acceptors>
4

>  <H-Donors>
0

>  <Total Surface Area>
175.94

>  <MMFF94 Energy>
28.358

> <Gold.Version>
5.8.1

> <Gold.Id.Protein>
ID|2FQT|mol2

> <Gold.PLP.Fitness>
50.3612

> <Gold.PLP.PLP>
-41.2089

> <Gold.PLP.part.hbond>
-4.0000

> <Gold.PLP.part.metal>
0.0000

> <Gold.PLP.part.buried>
-6.4491

> <Gold.PLP.part.nonpolar>
-32.0848

> <Gold.PLP.part.repulsive>
0.2473

> <Gold.PLP.ligand.clash>
0.0000

> <Gold.PLP.ligand.torsion>
1.2366

> <Gold.PLP.Chemscore.Hbond>
3.0541

> <Gold.PLP.Chemscore.CHOScore>
0.0000

> <Gold.PLP.Chemscore.Metal>
0.0000

> <Gold.Chemscore.Hbonds>
donor molecule, donor type, donor heavy atom, donor atom, acceptor molecule, acceptor atom, score
      P1  H  1223  2649       L1     2  1.00
      P1  H  1912  4380       L1     3  1.00
      P1  H  1230  2756       L1     2  0.05
      P1  H  1239  3336       L1     2  1.00

> <Gold.PLP.Chemscore.Internal.Correction>
2.4632

> <Gold.Protein.RotatedTorsions>
[ 3412  950  949  948 ] final  -74.01 input   60.00 | X-H torsion
[ 3476 1244 1243 1240 ] final   86.48 input   60.00 | X-H torsion
[ 2649 1223 1224 1225 ] final  -22.52 input   60.00 | X-H torsion
[ 4380 1912 1911 1909 ] final  105.49 input   60.00 | X-H torsion
[ 3084  621  620  617 ] final -138.46 input   60.00 | X-H torsion

> <Gold.Protein.ActiveResidues>
 HIS54   GLU57   HIS58   ALA61   PHE62   ILE64   ARG65   ASP75   ILE76   ILE77  
 ASP78   ILE79   SER80   PRO81   ILE118  PRO119  ALA120  ALA121  ASN122  LYS124 
 GLN125  CYS126  GLY127  CO701   VAL4    GLU5    SER6    PHE7    GLU8    LEU9   
 HIS11   ARG20   HIS21   CYS22   GLY23   VAL24   HIS25   LYS35   ARG39   MET82  
 GLY83   CYS84   TYR89  

> <Gold.Protein.RotatedAtoms>
  -20.6996   37.3666  -17.4466 H   0  0  0  0  0  0  0  0  0  0  0  0  # atno 2649 bound_to 1223
  -20.3690   38.8757  -16.8464 H   0  0  0  0  0  0  0  0  0  0  0  0  # atno 2650 bound_to 1223
  -18.9469   27.3252  -14.0319 H   0  0  0  0  0  0  0  0  0  0  0  0  # atno 3084 bound_to 621 
  -28.8604   39.1779  -28.5466 H   0  0  0  0  0  0  0  0  0  0  0  0  # atno 3412 bound_to 950 
  -28.2915   37.6525  -28.2353 H   0  0  0  0  0  0  0  0  0  0  0  0  # atno 3413 bound_to 950 
  -27.6786   38.5224  -29.5061 H   0  0  0  0  0  0  0  0  0  0  0  0  # atno 3414 bound_to 950 
  -22.8984   31.5679  -20.8514 H   0  0  0  0  0  0  0  0  0  0  0  0  # atno 3476 bound_to 1244
  -20.0640   31.9384  -19.1322 H   0  0  0  0  0  0  0  0  0  0  0  0  # atno 4380 bound_to 1912
  -24.1223   32.6022  -21.1345 LP  0  0  0  0  0  0  0  0  0  0  0  0  # atno 4866 bound_to 1244
  -23.9778   31.8835  -19.6753 LP  0  0  0  0  0  0  0  0  0  0  0  0  # atno 4867 bound_to 1244
  -21.5411   37.9487  -16.1583 LP  0  0  0  0  0  0  0  0  0  0  0  0  # atno 4874 bound_to 1223
  -21.2551   30.8525  -19.3557 LP  0  0  0  0  0  0  0  0  0  0  0  0  # atno 4875 bound_to 1912
  -20.1190   31.0713  -20.5081 LP  0  0  0  0  0  0  0  0  0  0  0  0  # atno 4876 bound_to 1912
  -18.0350   28.2535  -13.0547 LP  0  0  0  0  0  0  0  0  0  0  0  0  # atno 4881 bound_to 621 
  -19.5994   28.6370  -13.3235 LP  0  0  0  0  0  0  0  0  0  0  0  0  # atno 4882 bound_to 621 

$$$$
Compound 139|Decoys_protonated|sdf|139|dock2
  -GOLD-   6122416203D 1   1.00000     0.00000

 25 26  0  0  0  0  0  0  0  0  4 V2000
  -26.9576   31.5506  -19.1348 O   0  0  0  0  0  0  0  0  0  0  0  0
  -26.4544   30.4221  -19.0715 N   0  3  0  0  0  0  0  0  0  0  0  0
  -26.8789   29.3939  -19.6061 O   0  5  0  0  0  0  0  0  0  0  0  0
  -25.2586   30.3017  -18.2990 C   0  0  0  0  0  0  0  0  0  0  0  0
  -24.5748   29.1412  -17.9430 C   0  0  0  0  0  0  0  0  0  0  0  0
  -24.5317   31.3277  -17.7322 C   0  0  0  0  0  0  0  0  0  0  0  0
  -23.4962   29.4051  -17.2045 N   0  0  0  0  0  0  0  0  0  0  0  0
  -23.4430   30.7667  -17.0747 N   0  0  0  0  0  0  0  0  0  0  0  0
  -22.4352   31.4725  -16.3571 C   0  0  0  0  0  0  0  0  0  0  0  0
  -21.9580   30.9823  -15.1947 C   0  0  0  0  0  0  0  0  0  0  0  0
  -21.8535   32.7287  -16.9064 C   0  0  0  0  0  0  0  0  0  0  0  0
  -21.0043   31.4228  -14.3100 N   0  0  0  0  0  0  0  0  0  0  0  0
  -21.2543   33.6811  -16.2801 N   0  3  0  0  0  0  0  0  0  0  0  0
  -20.1783   32.6099  -14.3540 C   0  0  0  0  0  0  0  0  0  0  0  0
  -20.9708   33.8174  -14.8322 C   0  0  0  0  0  0  0  0  0  0  0  0
  -24.8129   28.1105  -18.1829 H   0  0  0  0  0  0  0  0  0  0  0  0
  -24.7205   32.3905  -17.7480 H   0  0  0  0  0  0  0  0  0  0  0  0
  -22.3778   30.0408  -14.8230 H   0  0  0  0  0  0  0  0  0  0  0  0
  -21.9293   32.8681  -17.9969 H   0  0  0  0  0  0  0  0  0  0  0  0
  -20.8138   30.7837  -13.5306 H   0  0  0  0  0  0  0  0  0  0  0  0
  -20.9200   34.4681  -16.8460 H   0  0  0  0  0  0  0  0  0  0  0  0
  -19.3070   32.4247  -14.9937 H   0  0  0  0  0  0  0  0  0  0  0  0
  -19.8022   32.8059  -13.3438 H   0  0  0  0  0  0  0  0  0  0  0  0
  -21.9273   33.9377  -14.3132 H   0  0  0  0  0  0  0  0  0  0  0  0
  -20.3829   34.7326  -14.7139 H   0  0  0  0  0  0  0  0  0  0  0  0
  1  2  2  0  0  0  0
  2  3  1  0  0  0  0
  2  4  1  0  0  0  0
  4  5  1  0  0  0  0
  4  6  2  0  0  0  0
  5  7  2  0  0  0  0
  5 16  1  0  0  0  0
  6  8  1  0  0  0  0
  6 17  1  0  0  0  0
  7  8  1  0  0  0  0
  8  9  1  0  0  0  0
  9 10  2  0  0  0  0
  9 11  1  0  0  0  0
 10 12  1  0  0  0  0
 10 18  1  0  0  0  0
 11 13  2  0  0  0  0
 11 19  1  0  0  0  0
 12 14  1  0  0  0  0
 12 20  1  0  0  0  0
 13 15  1  0  0  0  0
 13 21  1  0  0  0  0
 14 15  1  0  0  0  0
 14 22  1  0  0  0  0
 14 23  1  0  0  0  0
 15 24  1  0  0  0  0
 15 25  1  0  0  0  0
M  CHG  1   2   1
M  CHG  1   3  -1
M  CHG  1  13   1
M  END
>  <Column 1>
O=[N+]([O-])c1cnn(C2=CNCC[NH+]=C2)c1 ZINC000000028377

>  <Total Molweight>
208.2

>  <cLogP>
-1.5045

>  <cLogS>
-1.647

>  <H-Acceptors>
5

>  <H-Donors>
2

>  <Total Surface Area>
148.33

>  <MMFF94 Energy>
74.723

> <Gold.Version>
5.8.1

> <Gold.Id.Protein>
ID|2FQT|mol2

> <Gold.PLP.Fitness>
50.6399

> <Gold.PLP.PLP>
-31.1727

> <Gold.PLP.part.hbond>
-2.0000

> <Gold.PLP.part.metal>
-2.0000

> <Gold.PLP.part.buried>
0.0962

> <Gold.PLP.part.nonpolar>
-28.3256

> <Gold.PLP.part.repulsive>
0.3920

> <Gold.PLP.ligand.clash>
0.0000

> <Gold.PLP.ligand.torsion>
0.6651

> <Gold.PLP.Chemscore.Hbond>
1.9920

> <Gold.PLP.Chemscore.CHOScore>
1.0010

> <Gold.PLP.Chemscore.Metal>
1.9693

> <Gold.Chemscore.Hbonds>
donor molecule, donor type, donor heavy atom, donor atom, acceptor molecule, acceptor atom, score
      L1  H    12    20       P1   611  0.99
      P1  H   966  3428       L1     3  1.00
      L1  C    10    18       P1   427  1.00
      P1  M  1222  1222       L1     1  0.97
      P1  M  1222  1222       L1     3  1.00

> <Gold.PLP.Chemscore.Internal.Correction>
0.0021

> <Gold.Protein.RotatedTorsions>
[ 3412  950  949  948 ] final  -48.31 input   60.00 | X-H torsion
[ 3476 1244 1243 1240 ] final  -16.79 input   60.00 | X-H torsion
[ 2649 1223 1224 1225 ] final -121.63 input   60.00 | X-H torsion
[ 4380 1912 1911 1909 ] final -177.44 input   60.00 | X-H torsion
[ 3084  621  620  617 ] final   37.64 input   60.00 | X-H torsion

> <Gold.Protein.ActiveResidues>
 HIS54   GLU57   HIS58   ALA61   PHE62   ILE64   ARG65   ASP75   ILE76   ILE77  
 ASP78   ILE79   SER80   PRO81   ILE118  PRO119  ALA120  ALA121  ASN122  LYS124 
 GLN125  CYS126  GLY127  CO701   VAL4    GLU5    SER6    PHE7    GLU8    LEU9   
 HIS11   ARG20   HIS21   CYS22   GLY23   VAL24   HIS25   LYS35   ARG39   MET82  
 GLY83   CYS84   TYR89  

> <Gold.Protein.RotatedAtoms>
  -21.5714   37.6420  -16.3128 H   0  0  0  0  0  0  0  0  0  0  0  0  # atno 2649 bound_to 1223
  -20.4683   37.6039  -17.5493 H   0  0  0  0  0  0  0  0  0  0  0  0  # atno 2650 bound_to 1223
  -18.8364   28.8265  -12.9202 H   0  0  0  0  0  0  0  0  0  0  0  0  # atno 3084 bound_to 621 
  -28.9561   38.8882  -28.2498 H   0  0  0  0  0  0  0  0  0  0  0  0  # atno 3412 bound_to 950 
  -27.9942   37.5674  -28.5278 H   0  0  0  0  0  0  0  0  0  0  0  0  # atno 3413 bound_to 950 
  -27.8803   38.8972  -29.5105 H   0  0  0  0  0  0  0  0  0  0  0  0  # atno 3414 bound_to 950 
  -23.9196   32.5223  -21.3000 H   0  0  0  0  0  0  0  0  0  0  0  0  # atno 3476 bound_to 1244
  -19.7501   31.5557  -20.1885 H   0  0  0  0  0  0  0  0  0  0  0  0  # atno 4380 bound_to 1912
  -24.1687   32.0619  -19.7592 LP  0  0  0  0  0  0  0  0  0  0  0  0  # atno 4866 bound_to 1244
  -22.9030   31.4626  -20.5990 LP  0  0  0  0  0  0  0  0  0  0  0  0  # atno 4867 bound_to 1244
  -20.5844   38.9303  -16.5828 LP  0  0  0  0  0  0  0  0  0  0  0  0  # atno 4874 bound_to 1223
  -20.6207   31.6832  -18.8196 LP  0  0  0  0  0  0  0  0  0  0  0  0  # atno 4875 bound_to 1912
  -21.0695   30.6261  -19.9805 LP  0  0  0  0  0  0  0  0  0  0  0  0  # atno 4876 bound_to 1912
  -19.6583   27.8364  -13.9163 LP  0  0  0  0  0  0  0  0  0  0  0  0  # atno 4881 bound_to 621 
  -18.0873   27.5421  -13.5814 LP  0  0  0  0  0  0  0  0  0  0  0  0  # atno 4882 bound_to 621 

$$$$
Compound 140|Decoys_protonated|sdf|140|dock3
  -GOLD-   6122416203D 1   1.00000     0.00000

 25 26  0  0  0  0  0  0  0  0  1 V2000
  -23.4224   33.9477  -16.8810 O   0  0  0  0  0  0  0  0  0  0  0  0
  -22.4435   33.1932  -16.2881 C   0  0  0  0  0  0  0  0  0  0  0  0
  -23.1941   35.3472  -17.0012 C   0  0  0  0  0  0  0  0  0  0  0  0
  -22.6713   31.8080  -16.2010 C   0  0  0  0  0  0  0  0  0  0  0  0
  -21.2498   33.7118  -15.7725 C   0  0  0  0  0  0  0  0  0  0  0  0
  -21.7193   30.9661  -15.6087 C   0  0  0  0  0  0  0  0  0  0  0  0
  -23.9259   31.2223  -16.7371 C   0  0  0  0  0  0  0  0  0  0  0  0
  -20.3030   32.8677  -15.1825 C   0  0  0  0  0  0  0  0  0  0  0  0
  -20.5364   31.4979  -15.1004 C   0  0  0  0  0  0  0  0  0  0  0  0
  -23.9956   30.7761  -17.9508 N   0  0  0  0  0  0  0  0  0  0  0  0
  -25.1869   30.2529  -18.3661 N   0  0  0  0  0  0  0  0  0  0  0  0
  -25.8615   30.6950  -19.4755 C   0  0  0  0  0  0  0  0  0  0  0  0
  -25.9865   29.2514  -17.8750 C   0  0  0  0  0  0  0  0  0  0  0  0
  -26.9754   30.0205  -19.6445 N   0  0  0  0  0  0  0  0  0  0  0  0
  -27.0552   29.1025  -18.6271 N   0  0  0  0  0  0  0  0  0  0  0  0
  -23.0947   35.8166  -16.0171 H   0  0  0  0  0  0  0  0  0  0  0  0
  -24.0678   35.7863  -17.4922 H   0  0  0  0  0  0  0  0  0  0  0  0
  -22.3214   35.5519  -17.6301 H   0  0  0  0  0  0  0  0  0  0  0  0
  -21.0199   34.7719  -15.8118 H   0  0  0  0  0  0  0  0  0  0  0  0
  -21.8936   29.8947  -15.5403 H   0  0  0  0  0  0  0  0  0  0  0  0
  -24.7779   31.1959  -16.0388 H   0  0  0  0  0  0  0  0  0  0  0  0
  -19.3795   33.2837  -14.7858 H   0  0  0  0  0  0  0  0  0  0  0  0
  -19.7989   30.8441  -14.6413 H   0  0  0  0  0  0  0  0  0  0  0  0
  -25.4895   31.4938  -20.0978 H   0  0  0  0  0  0  0  0  0  0  0  0
  -25.7650   28.6704  -16.9946 H   0  0  0  0  0  0  0  0  0  0  0  0
  1  2  1  0  0  0  0
  1  3  1  0  0  0  0
  2  4  2  0  0  0  0
  2  5  1  0  0  0  0
  3 16  1  0  0  0  0
  3 17  1  0  0  0  0
  3 18  1  0  0  0  0
  4  6  1  0  0  0  0
  4  7  1  0  0  0  0
  5  8  2  0  0  0  0
  5 19  1  0  0  0  0
  6  9  2  0  0  0  0
  6 20  1  0  0  0  0
  7 10  2  0  0  0  0
  7 21  1  0  0  0  0
  8  9  1  0  0  0  0
  8 22  1  0  0  0  0
  9 23  1  0  0  0  0
 10 11  1  0  0  0  0
 11 12  1  0  0  0  0
 11 13  1  0  0  0  0
 12 14  2  0  0  0  0
 12 24  1  0  0  0  0
 13 15  2  0  0  0  0
 13 25  1  0  0  0  0
 14 15  1  0  0  0  0
M  END
>  <Column 1>
COc1ccccc1/C=N/n1cnnc1 ZINC000000028582

>  <Total Molweight>
202.216

>  <cLogP>
1.1583

>  <cLogS>
-4.328

>  <H-Acceptors>
5

>  <H-Donors>
0

>  <Total Surface Area>
166.76

>  <MMFF94 Energy>
55.22

> <Gold.Version>
5.8.1

> <Gold.Id.Protein>
ID|2FQT|mol2

> <Gold.PLP.Fitness>
55.6904

> <Gold.PLP.PLP>
-37.2079

> <Gold.PLP.part.hbond>
-2.0000

> <Gold.PLP.part.metal>
-1.6004

> <Gold.PLP.part.buried>
2.1042

> <Gold.PLP.part.nonpolar>
-35.4199

> <Gold.PLP.part.repulsive>
0.2001

> <Gold.PLP.ligand.clash>
0.0000

> <Gold.PLP.ligand.torsion>
1.2613

> <Gold.PLP.Chemscore.Hbond>
1.0000

> <Gold.PLP.Chemscore.CHOScore>
2.0000

> <Gold.PLP.Chemscore.Metal>
2.0000

> <Gold.Chemscore.Hbonds>
donor molecule, donor type, donor heavy atom, donor atom, acceptor molecule, acceptor atom, score
      P1  H   966  3428       L1    14  1.00
      L1  C    12    24       P1  1244  1.00
      L1  C    13    25       P1   426  1.00
      P1  M  1222  1222       L1    14  1.00
      P1  M  1222  1222       L1    15  1.00

> <Gold.PLP.Chemscore.Internal.Correction>
0.0051

> <Gold.Protein.RotatedTorsions>
[ 3412  950  949  948 ] final   80.71 input   60.00 | X-H torsion
[ 3476 1244 1243 1240 ] final   38.01 input   60.00 | X-H torsion
[ 2649 1223 1224 1225 ] final  168.51 input   60.00 | X-H torsion
[ 4380 1912 1911 1909 ] final  117.33 input   60.00 | X-H torsion
[ 3084  621  620  617 ] final -113.60 input   60.00 | X-H torsion

> <Gold.Protein.ActiveResidues>
 HIS54   GLU57   HIS58   ALA61   PHE62   ILE64   ARG65   ASP75   ILE76   ILE77  
 ASP78   ILE79   SER80   PRO81   ILE118  PRO119  ALA120  ALA121  ASN122  LYS124 
 GLN125  CYS126  GLY127  CO701   VAL4    GLU5    SER6    PHE7    GLU8    LEU9   
 HIS11   ARG20   HIS21   CYS22   GLY23   VAL24   HIS25   LYS35   ARG39   MET82  
 GLY83   CYS84   TYR89  

> <Gold.Protein.RotatedAtoms>
  -21.1716   38.6426  -16.1133 H   0  0  0  0  0  0  0  0  0  0  0  0  # atno 2649 bound_to 1223
  -21.2723   37.2003  -16.9235 H   0  0  0  0  0  0  0  0  0  0  0  0  # atno 2650 bound_to 1223
  -19.3160   27.4866  -14.0446 H   0  0  0  0  0  0  0  0  0  0  0  0  # atno 3084 bound_to 621 
  -27.9003   37.5792  -28.6448 H   0  0  0  0  0  0  0  0  0  0  0  0  # atno 3412 bound_to 950 
  -27.9722   39.0112  -29.4762 H   0  0  0  0  0  0  0  0  0  0  0  0  # atno 3413 bound_to 950 
  -28.9580   38.7624  -28.1672 H   0  0  0  0  0  0  0  0  0  0  0  0  # atno 3414 bound_to 950 
  -23.2183   32.0280  -21.3774 H   0  0  0  0  0  0  0  0  0  0  0  0  # atno 3476 bound_to 1244
  -19.9390   31.9503  -19.2792 H   0  0  0  0  0  0  0  0  0  0  0  0  # atno 4380 bound_to 1912
  -24.4364   32.5433  -20.4296 LP  0  0  0  0  0  0  0  0  0  0  0  0  # atno 4866 bound_to 1244
  -23.3416   31.4790  -19.8506 LP  0  0  0  0  0  0  0  0  0  0  0  0  # atno 4867 bound_to 1244
  -20.1861   38.3422  -17.3960 LP  0  0  0  0  0  0  0  0  0  0  0  0  # atno 4874 bound_to 1223
  -21.2318   30.9653  -19.1989 LP  0  0  0  0  0  0  0  0  0  0  0  0  # atno 4875 bound_to 1912
  -20.2680   30.9465  -20.5170 LP  0  0  0  0  0  0  0  0  0  0  0  0  # atno 4876 bound_to 1912
  -17.9531   27.9172  -13.2667 LP  0  0  0  0  0  0  0  0  0  0  0  0  # atno 4881 bound_to 621 
  -19.3096   28.8107  -13.0987 LP  0  0  0  0  0  0  0  0  0  0  0  0  # atno 4882 bound_to 621 

$$$$
Compound 141|Decoys_protonated|sdf|141|dock1
  -GOLD-   6122416203D 1   1.00000     0.00000

 21 22  0  0  0  0  0  0  0  0  1 V2000
  -21.8184   32.6320  -16.8877 S   0  0  0  0  0  0  0  0  0  0  0  0
  -22.4637   31.1613  -16.3007 C   0  0  0  0  0  0  0  0  0  0  0  0
  -20.4996   32.5759  -15.8001 C   0  0  0  0  0  0  0  0  0  0  0  0
  -21.6825   30.6370  -15.2895 C   0  0  0  0  0  0  0  0  0  0  0  0
  -23.6814   30.5983  -16.8454 C   0  0  0  0  0  0  0  0  0  0  0  0
  -20.5494   31.4534  -15.0010 C   0  0  0  0  0  0  0  0  0  0  0  0
  -19.4838   33.6662  -15.8092 C   0  0  0  0  0  0  0  0  0  0  0  0
  -24.1095   30.9044  -18.0254 N   0  0  0  0  0  0  0  0  0  0  0  0
  -25.2654   30.3247  -18.4541 N   0  0  0  0  0  0  0  0  0  0  0  0
  -25.9275   30.7097  -19.5921 C   0  0  0  0  0  0  0  0  0  0  0  0
  -26.0381   29.3061  -17.9547 C   0  0  0  0  0  0  0  0  0  0  0  0
  -27.0094   29.9867  -19.7687 N   0  0  0  0  0  0  0  0  0  0  0  0
  -27.0800   29.0947  -18.7282 N   0  0  0  0  0  0  0  0  0  0  0  0
  -21.9052   29.7103  -14.7738 H   0  0  0  0  0  0  0  0  0  0  0  0
  -24.2034   29.8952  -16.1736 H   0  0  0  0  0  0  0  0  0  0  0  0
  -19.8083   31.2260  -14.2435 H   0  0  0  0  0  0  0  0  0  0  0  0
  -18.7082   33.4838  -15.0579 H   0  0  0  0  0  0  0  0  0  0  0  0
  -19.9482   34.6317  -15.5832 H   0  0  0  0  0  0  0  0  0  0  0  0
  -18.9943   33.7329  -16.7863 H   0  0  0  0  0  0  0  0  0  0  0  0
  -25.5710   31.5054  -20.2280 H   0  0  0  0  0  0  0  0  0  0  0  0
  -25.8205   28.7563  -17.0536 H   0  0  0  0  0  0  0  0  0  0  0  0
  1  2  1  0  0  0  0
  1  3  1  0  0  0  0
  2  4  2  0  0  0  0
  2  5  1  0  0  0  0
  3  6  2  0  0  0  0
  3  7  1  0  0  0  0
  4  6  1  0  0  0  0
  4 14  1  0  0  0  0
  5  8  2  0  0  0  0
  5 15  1  0  0  0  0
  6 16  1  0  0  0  0
  7 17  1  0  0  0  0
  7 18  1  0  0  0  0
  7 19  1  0  0  0  0
  8  9  1  0  0  0  0
  9 10  1  0  0  0  0
  9 11  1  0  0  0  0
 10 12  2  0  0  0  0
 10 20  1  0  0  0  0
 11 13  2  0  0  0  0
 11 21  1  0  0  0  0
 12 13  1  0  0  0  0
M  END
>  <Column 1>
Cc1ccc(/C=N/n2cnnc2)s1 ZINC000000028584

>  <Total Molweight>
192.246

>  <cLogP>
1.521

>  <cLogS>
-4.774

>  <H-Acceptors>
4

>  <H-Donors>
0

>  <Total Surface Area>
152.7

>  <MMFF94 Energy>
27.716

> <Gold.Version>
5.8.1

> <Gold.Id.Protein>
ID|2FQT|mol2

> <Gold.PLP.Fitness>
52.0820

> <Gold.PLP.PLP>
-31.4488

> <Gold.PLP.part.hbond>
-2.0000

> <Gold.PLP.part.metal>
-1.6139

> <Gold.PLP.part.buried>
2.8496

> <Gold.PLP.part.nonpolar>
-30.9301

> <Gold.PLP.part.repulsive>
0.1981

> <Gold.PLP.ligand.clash>
0.0000

> <Gold.PLP.ligand.torsion>
0.1297

> <Gold.PLP.Chemscore.Hbond>
1.0000

> <Gold.PLP.Chemscore.CHOScore>
1.9636

> <Gold.PLP.Chemscore.Metal>
2.0000

> <Gold.Chemscore.Hbonds>
donor molecule, donor type, donor heavy atom, donor atom, acceptor molecule, acceptor atom, score
      P1  H   966  3428       L1    12  1.00
      L1  C    10    20       P1  1244  0.96
      L1  C    11    21       P1   426  1.00
      P1  M  1222  1222       L1    12  1.00
      P1  M  1222  1222       L1    13  1.00

> <Gold.PLP.Chemscore.Internal.Correction>
0.0018

> <Gold.Protein.RotatedTorsions>
[ 3412  950  949  948 ] final -105.24 input   60.00 | X-H torsion
[ 3476 1244 1243 1240 ] final   65.01 input   60.00 | X-H torsion
[ 2649 1223 1224 1225 ] final    2.25 input   60.00 | X-H torsion
[ 4380 1912 1911 1909 ] final  -77.10 input   60.00 | X-H torsion
[ 3084  621  620  617 ] final -101.15 input   60.00 | X-H torsion

> <Gold.Protein.ActiveResidues>
 HIS54   GLU57   HIS58   ALA61   PHE62   ILE64   ARG65   ASP75   ILE76   ILE77  
 ASP78   ILE79   SER80   PRO81   ILE118  PRO119  ALA120  ALA121  ASN122  LYS124 
 GLN125  CYS126  GLY127  CO701   VAL4    GLU5    SER6    PHE7    GLU8    LEU9   
 HIS11   ARG20   HIS21   CYS22   GLY23   VAL24   HIS25   LYS35   ARG39   MET82  
 GLY83   CYS84   TYR89  

> <Gold.Protein.RotatedAtoms>
  -20.4303   37.6557  -17.5579 H   0  0  0  0  0  0  0  0  0  0  0  0  # atno 2649 bound_to 1223
  -20.6204   38.9408  -16.5286 H   0  0  0  0  0  0  0  0  0  0  0  0  # atno 2650 bound_to 1223
  -19.4730   27.6108  -14.0103 H   0  0  0  0  0  0  0  0  0  0  0  0  # atno 3084 bound_to 621 
  -28.5923   39.3329  -28.9583 H   0  0  0  0  0  0  0  0  0  0  0  0  # atno 3412 bound_to 950 
  -28.6432   37.9645  -28.0245 H   0  0  0  0  0  0  0  0  0  0  0  0  # atno 3413 bound_to 950 
  -27.5950   38.0554  -29.3052 H   0  0  0  0  0  0  0  0  0  0  0  0  # atno 3414 bound_to 950 
  -22.9818   31.7499  -21.1369 H   0  0  0  0  0  0  0  0  0  0  0  0  # atno 3476 bound_to 1244
  -20.8611   30.6435  -20.2239 H   0  0  0  0  0  0  0  0  0  0  0  0  # atno 4380 bound_to 1912
  -24.3195   32.6293  -20.8452 LP  0  0  0  0  0  0  0  0  0  0  0  0  # atno 4866 bound_to 1244
  -23.6967   31.6731  -19.6771 LP  0  0  0  0  0  0  0  0  0  0  0  0  # atno 4867 bound_to 1244
  -21.5587   37.5997  -16.3618 LP  0  0  0  0  0  0  0  0  0  0  0  0  # atno 4874 bound_to 1223
  -19.7019   31.7489  -19.9369 LP  0  0  0  0  0  0  0  0  0  0  0  0  # atno 4875 bound_to 1912
  -20.8694   31.4790  -18.8275 LP  0  0  0  0  0  0  0  0  0  0  0  0  # atno 4876 bound_to 1912
  -17.9756   27.7556  -13.3900 LP  0  0  0  0  0  0  0  0  0  0  0  0  # atno 4881 bound_to 621 
  -19.1290   28.8473  -13.0099 LP  0  0  0  0  0  0  0  0  0  0  0  0  # atno 4882 bound_to 621 

$$$$
Compound 142|Decoys_protonated|sdf|142|dock4
  -GOLD-   6122416203D 1   1.00000     0.00000

 31 31  0  0  0  0  0  0  0  0  1 V2000
  -26.1470   30.1525  -19.4708 S   0  0  0  0  0  0  0  0  0  0  0  0
  -27.3105   29.3909  -19.8757 O   0  0  0  0  0  0  0  0  0  0  0  0
  -25.9056   31.4823  -19.9870 O   0  0  0  0  0  0  0  0  0  0  0  0
  -26.1930   30.2097  -17.7703 N   0  0  0  0  0  0  0  0  0  0  0  0
  -24.7005   29.1515  -19.7299 C   0  0  0  0  0  0  0  0  0  0  0  0
  -25.0202   30.7566  -17.0527 N   0  0  0  0  0  0  0  0  0  0  0  0
  -24.6561   31.9318  -17.4547 C   0  0  0  0  0  0  0  0  0  0  0  0
  -23.4994   32.6345  -16.8669 C   0  0  0  0  0  0  0  0  0  0  0  0
  -23.5574   34.0243  -16.7236 C   0  0  0  0  0  0  0  0  0  0  0  0
  -22.3661   31.9285  -16.4625 C   0  0  0  0  0  0  0  0  0  0  0  0
  -22.4733   34.7143  -16.1687 C   0  0  0  0  0  0  0  0  0  0  0  0
  -21.2816   32.6122  -15.9088 C   0  0  0  0  0  0  0  0  0  0  0  0
  -22.4336   36.0746  -15.9839 O   0  0  0  0  0  0  0  0  0  0  0  0
  -21.3253   34.0026  -15.7576 C   0  0  0  0  0  0  0  0  0  0  0  0
  -23.6586   36.7511  -15.7440 C   0  0  0  0  0  0  0  0  0  0  0  0
  -20.3095   34.7562  -15.2237 O   0  0  0  0  0  0  0  0  0  0  0  0
  -19.1695   34.0700  -14.7265 C   0  0  0  0  0  0  0  0  0  0  0  0
  -27.1373   30.4288  -17.4416 H   0  0  0  0  0  0  0  0  0  0  0  0
  -23.8292   29.6744  -19.3316 H   0  0  0  0  0  0  0  0  0  0  0  0
  -24.8419   28.1887  -19.2357 H   0  0  0  0  0  0  0  0  0  0  0  0
  -24.5834   29.0028  -20.8053 H   0  0  0  0  0  0  0  0  0  0  0  0
  -25.2067   32.4551  -18.2562 H   0  0  0  0  0  0  0  0  0  0  0  0
  -24.4495   34.5495  -17.0452 H   0  0  0  0  0  0  0  0  0  0  0  0
  -22.3147   30.8477  -16.5771 H   0  0  0  0  0  0  0  0  0  0  0  0
  -20.4176   32.0295  -15.6067 H   0  0  0  0  0  0  0  0  0  0  0  0
  -24.3434   36.6405  -16.5910 H   0  0  0  0  0  0  0  0  0  0  0  0
  -23.4365   37.8168  -15.6332 H   0  0  0  0  0  0  0  0  0  0  0  0
  -24.1218   36.4096  -14.8127 H   0  0  0  0  0  0  0  0  0  0  0  0
  -19.4356   33.4188  -13.8875 H   0  0  0  0  0  0  0  0  0  0  0  0
  -18.4642   34.8193  -14.3541 H   0  0  0  0  0  0  0  0  0  0  0  0
  -18.6681   33.5083  -15.5215 H   0  0  0  0  0  0  0  0  0  0  0  0
  1  2  2  0  0  0  0
  1  3  2  0  0  0  0
  1  4  1  0  0  0  0
  1  5  1  0  0  0  0
  4  6  1  0  0  0  0
  4 18  1  0  0  0  0
  5 19  1  0  0  0  0
  5 20  1  0  0  0  0
  5 21  1  0  0  0  0
  6  7  2  0  0  0  0
  7  8  1  0  0  0  0
  7 22  1  0  0  0  0
  8  9  2  0  0  0  0
  8 10  1  0  0  0  0
  9 11  1  0  0  0  0
  9 23  1  0  0  0  0
 10 12  2  0  0  0  0
 10 24  1  0  0  0  0
 11 13  1  0  0  0  0
 11 14  2  0  0  0  0
 12 14  1  0  0  0  0
 12 25  1  0  0  0  0
 13 15  1  0  0  0  0
 14 16  1  0  0  0  0
 15 26  1  0  0  0  0
 15 27  1  0  0  0  0
 15 28  1  0  0  0  0
 16 17  1  0  0  0  0
 17 29  1  0  0  0  0
 17 30  1  0  0  0  0
 17 31  1  0  0  0  0
M  END
>  <Column 1>
COc1ccc(/C=N/NS(C)(=O)=O)cc1OC ZINC000000029079

>  <Total Molweight>
258.297

>  <cLogP>
0.8867

>  <cLogS>
-1.706

>  <H-Acceptors>
6

>  <H-Donors>
1

>  <Total Surface Area>
194.84

>  <MMFF94 Energy>
62.001

> <Gold.Version>
5.8.1

> <Gold.Id.Protein>
ID|2FQT|mol2

> <Gold.PLP.Fitness>
59.0057

> <Gold.PLP.PLP>
-37.9297

> <Gold.PLP.part.hbond>
-2.7195

> <Gold.PLP.part.metal>
-2.0000

> <Gold.PLP.part.buried>
-2.8680

> <Gold.PLP.part.nonpolar>
-31.9680

> <Gold.PLP.part.repulsive>
0.4877

> <Gold.PLP.ligand.clash>
0.0000

> <Gold.PLP.ligand.torsion>
0.7116

> <Gold.PLP.Chemscore.Hbond>
3.4980

> <Gold.PLP.Chemscore.CHOScore>
0.0000

> <Gold.PLP.Chemscore.Metal>
1.9865

> <Gold.Chemscore.Hbonds>
donor molecule, donor type, donor heavy atom, donor atom, acceptor molecule, acceptor atom, score
      L1  H     4    18       P1   437  0.95
      P1  H   966  3428       L1     2  0.78
      P1  H  1244  3476       L1     3  0.77
      P1  H  1223  2650       L1    13  1.00
      P1  M  1222  1222       L1     2  1.00
      P1  M  1222  1222       L1     4  0.99

> <Gold.PLP.Chemscore.Internal.Correction>
0.0860

> <Gold.Protein.RotatedTorsions>
[ 3412  950  949  948 ] final  108.72 input   60.00 | X-H torsion
[ 3476 1244 1243 1240 ] final -121.22 input   60.00 | X-H torsion
[ 2649 1223 1224 1225 ] final  156.07 input   60.00 | X-H torsion
[ 4380 1912 1911 1909 ] final  141.99 input   60.00 | X-H torsion
[ 3084  621  620  617 ] final  109.01 input   60.00 | X-H torsion

> <Gold.Protein.ActiveResidues>
 HIS54   GLU57   HIS58   ALA61   PHE62   ILE64   ARG65   ASP75   ILE76   ILE77  
 ASP78   ILE79   SER80   PRO81   ILE118  PRO119  ALA120  ALA121  ASN122  LYS124 
 GLN125  CYS126  GLY127  CO701   VAL4    GLU5    SER6    PHE7    GLU8    LEU9   
 HIS11   ARG20   HIS21   CYS22   GLY23   VAL24   HIS25   LYS35   ARG39   MET82  
 GLY83   CYS84   TYR89  

> <Gold.Protein.RotatedAtoms>
  -21.0278   38.7713  -16.1891 H   0  0  0  0  0  0  0  0  0  0  0  0  # atno 2649 bound_to 1223
  -21.3872   37.2576  -16.7607 H   0  0  0  0  0  0  0  0  0  0  0  0  # atno 2650 bound_to 1223
  -17.9997   28.1513  -13.1125 H   0  0  0  0  0  0  0  0  0  0  0  0  # atno 3084 bound_to 621 
  -27.6771   37.7487  -29.0134 H   0  0  0  0  0  0  0  0  0  0  0  0  # atno 3412 bound_to 950 
  -28.2947   39.2664  -29.2631 H   0  0  0  0  0  0  0  0  0  0  0  0  # atno 3413 bound_to 950 
  -28.8588   38.3377  -28.0115 H   0  0  0  0  0  0  0  0  0  0  0  0  # atno 3414 bound_to 950 
  -24.3024   32.2250  -19.9018 H   0  0  0  0  0  0  0  0  0  0  0  0  # atno 3476 bound_to 1244
  -19.7576   31.8854  -19.6295 H   0  0  0  0  0  0  0  0  0  0  0  0  # atno 4380 bound_to 1912
  -22.9690   31.4113  -20.3577 LP  0  0  0  0  0  0  0  0  0  0  0  0  # atno 4866 bound_to 1244
  -23.7172   32.4126  -21.4085 LP  0  0  0  0  0  0  0  0  0  0  0  0  # atno 4867 bound_to 1244
  -20.2147   38.1589  -17.4816 LP  0  0  0  0  0  0  0  0  0  0  0  0  # atno 4874 bound_to 1223
  -21.0833   31.2382  -18.9428 LP  0  0  0  0  0  0  0  0  0  0  0  0  # atno 4875 bound_to 1912
  -20.5993   30.7389  -20.4203 LP  0  0  0  0  0  0  0  0  0  0  0  0  # atno 4876 bound_to 1912
  -19.5247   28.7021  -13.2510 LP  0  0  0  0  0  0  0  0  0  0  0  0  # atno 4881 bound_to 621 
  -19.0636   27.3564  -14.0530 LP  0  0  0  0  0  0  0  0  0  0  0  0  # atno 4882 bound_to 621 

$$$$
Compound 143|Decoys_protonated|sdf|143|dock3
  -GOLD-   6122416203D 1   1.00000     0.00000

 27 27  0  0  0  0  0  0  0  0  1 V2000
  -18.6777   34.9894  -17.1224 S   0  0  0  0  0  0  0  0  0  0  0  0
  -19.0352   36.3261  -17.5494 O   0  0  0  0  0  0  0  0  0  0  0  0
  -17.8873   34.1220  -17.9703 O   0  0  0  0  0  0  0  0  0  0  0  0
  -17.9096   35.1018  -15.6077 N   0  0  0  0  0  0  0  0  0  0  0  0
  -20.1924   34.1300  -16.7455 C   0  0  0  0  0  0  0  0  0  0  0  0
  -17.2830   36.3913  -15.2722 C   0  0  0  0  0  0  0  0  0  0  0  0
  -18.5932   34.4734  -14.4648 C   0  0  0  0  0  0  0  0  0  0  0  0
  -20.1539   32.7778  -16.4009 C   0  0  0  0  0  0  0  0  0  0  0  0
  -21.4152   34.7977  -16.8585 C   0  0  0  0  0  0  0  0  0  0  0  0
  -21.3477   32.1074  -16.1289 C   0  0  0  0  0  0  0  0  0  0  0  0
  -22.6065   34.1169  -16.5862 C   0  0  0  0  0  0  0  0  0  0  0  0
  -22.5768   32.7701  -16.2168 C   0  0  0  0  0  0  0  0  0  0  0  0
  -23.6633   31.9935  -15.9229 O   0  0  0  0  0  0  0  0  0  0  0  0
  -24.8957   32.6670  -15.6982 C   0  0  0  0  0  0  0  0  0  0  0  0
  -16.7042   36.7823  -16.1134 H   0  0  0  0  0  0  0  0  0  0  0  0
  -18.0333   37.1276  -14.9715 H   0  0  0  0  0  0  0  0  0  0  0  0
  -16.5817   36.2538  -14.4426 H   0  0  0  0  0  0  0  0  0  0  0  0
  -18.9703   33.4806  -14.7243 H   0  0  0  0  0  0  0  0  0  0  0  0
  -19.4184   35.0961  -14.1083 H   0  0  0  0  0  0  0  0  0  0  0  0
  -17.8829   34.3369  -13.6428 H   0  0  0  0  0  0  0  0  0  0  0  0
  -19.2098   32.2408  -16.3476 H   0  0  0  0  0  0  0  0  0  0  0  0
  -21.4508   35.8418  -17.1626 H   0  0  0  0  0  0  0  0  0  0  0  0
  -21.3241   31.0545  -15.8558 H   0  0  0  0  0  0  0  0  0  0  0  0
  -23.5393   34.6638  -16.6790 H   0  0  0  0  0  0  0  0  0  0  0  0
  -24.8348   33.3165  -14.8189 H   0  0  0  0  0  0  0  0  0  0  0  0
  -25.6596   31.9090  -15.4999 H   0  0  0  0  0  0  0  0  0  0  0  0
  -25.2065   33.2291  -16.5851 H   0  0  0  0  0  0  0  0  0  0  0  0
  1  2  2  0  0  0  0
  1  3  2  0  0  0  0
  1  4  1  0  0  0  0
  1  5  1  0  0  0  0
  4  6  1  0  0  0  0
  4  7  1  0  0  0  0
  5  8  2  0  0  0  0
  5  9  1  0  0  0  0
  6 15  1  0  0  0  0
  6 16  1  0  0  0  0
  6 17  1  0  0  0  0
  7 18  1  0  0  0  0
  7 19  1  0  0  0  0
  7 20  1  0  0  0  0
  8 10  1  0  0  0  0
  8 21  1  0  0  0  0
  9 11  2  0  0  0  0
  9 22  1  0  0  0  0
 10 12  2  0  0  0  0
 10 23  1  0  0  0  0
 11 12  1  0  0  0  0
 11 24  1  0  0  0  0
 12 13  1  0  0  0  0
 13 14  1  0  0  0  0
 14 25  1  0  0  0  0
 14 26  1  0  0  0  0
 14 27  1  0  0  0  0
M  END
>  <Column 1>
COc1ccc(S(=O)(=O)N(C)C)cc1 ZINC000000029190

>  <Total Molweight>
215.272

>  <cLogP>
0.8082

>  <cLogS>
-0.773

>  <H-Acceptors>
4

>  <H-Donors>
0

>  <Total Surface Area>
158.92

>  <MMFF94 Energy>
-16.669

> <Gold.Version>
5.8.1

> <Gold.Id.Protein>
ID|2FQT|mol2

> <Gold.PLP.Fitness>
42.6187

> <Gold.PLP.PLP>
-35.5069

> <Gold.PLP.part.hbond>
-3.9680

> <Gold.PLP.part.metal>
0.0000

> <Gold.PLP.part.buried>
-6.7844

> <Gold.PLP.part.nonpolar>
-25.9236

> <Gold.PLP.part.repulsive>
0.2219

> <Gold.PLP.ligand.clash>
0.0000

> <Gold.PLP.ligand.torsion>
1.5776

> <Gold.PLP.Chemscore.Hbond>
2.5538

> <Gold.PLP.Chemscore.CHOScore>
0.0000

> <Gold.PLP.Chemscore.Metal>
0.0000

> <Gold.Chemscore.Hbonds>
donor molecule, donor type, donor heavy atom, donor atom, acceptor molecule, acceptor atom, score
      P1  H  1223  2649       L1     2  0.98
      P1  H  1230  2756       L1     2  0.59
      P1  H  1466  3954       L1     3  0.99

> <Gold.PLP.Chemscore.Internal.Correction>
2.6056

> <Gold.Protein.RotatedTorsions>
[ 3412  950  949  948 ] final  -14.03 input   60.00 | X-H torsion
[ 3476 1244 1243 1240 ] final   80.41 input   60.00 | X-H torsion
[ 2649 1223 1224 1225 ] final   -4.12 input   60.00 | X-H torsion
[ 4380 1912 1911 1909 ] final   20.63 input   60.00 | X-H torsion
[ 3084  621  620  617 ] final -101.99 input   60.00 | X-H torsion

> <Gold.Protein.ActiveResidues>
 HIS54   GLU57   HIS58   ALA61   PHE62   ILE64   ARG65   ASP75   ILE76   ILE77  
 ASP78   ILE79   SER80   PRO81   ILE118  PRO119  ALA120  ALA121  ASN122  LYS124 
 GLN125  CYS126  GLY127  CO701   VAL4    GLU5    SER6    PHE7    GLU8    LEU9   
 HIS11   ARG20   HIS21   CYS22   GLY23   VAL24   HIS25   LYS35   ARG39   MET82  
 GLY83   CYS84   TYR89  

> <Gold.Protein.RotatedAtoms>
  -20.4936   37.5717  -17.5419 H   0  0  0  0  0  0  0  0  0  0  0  0  # atno 2649 bound_to 1223
  -20.5492   38.9396  -16.6076 H   0  0  0  0  0  0  0  0  0  0  0  0  # atno 2650 bound_to 1223
  -19.4632   27.6016  -14.0135 H   0  0  0  0  0  0  0  0  0  0  0  0  # atno 3084 bound_to 621 
  -28.8752   38.3799  -28.0193 H   0  0  0  0  0  0  0  0  0  0  0  0  # atno 3412 bound_to 950 
  -27.6934   37.7237  -28.9785 H   0  0  0  0  0  0  0  0  0  0  0  0  # atno 3413 bound_to 950 
  -28.2619   39.2491  -29.2903 H   0  0  0  0  0  0  0  0  0  0  0  0  # atno 3414 bound_to 950 
  -22.9115   31.6139  -20.9382 H   0  0  0  0  0  0  0  0  0  0  0  0  # atno 3476 bound_to 1244
  -21.0891   31.2212  -18.9577 H   0  0  0  0  0  0  0  0  0  0  0  0  # atno 4380 bound_to 1912
  -24.1859   32.6185  -21.0593 LP  0  0  0  0  0  0  0  0  0  0  0  0  # atno 4866 bound_to 1244
  -23.9012   31.8208  -19.6632 LP  0  0  0  0  0  0  0  0  0  0  0  0  # atno 4867 bound_to 1244
  -21.5665   37.6837  -16.2997 LP  0  0  0  0  0  0  0  0  0  0  0  0  # atno 4874 bound_to 1223
  -20.5810   30.7481  -20.4295 LP  0  0  0  0  0  0  0  0  0  0  0  0  # atno 4875 bound_to 1912
  -19.7607   31.8980  -19.6101 LP  0  0  0  0  0  0  0  0  0  0  0  0  # atno 4876 bound_to 1912
  -17.9727   27.7662  -13.3814 LP  0  0  0  0  0  0  0  0  0  0  0  0  # atno 4881 bound_to 621 
  -19.1418   28.8459  -13.0153 LP  0  0  0  0  0  0  0  0  0  0  0  0  # atno 4882 bound_to 621 

$$$$
Compound 144|Decoys_protonated|sdf|144|dock3
  -GOLD-   6122416203D 1   1.00000     0.00000

 29 29  0  0  0  0  0  0  0  0  1 V2000
  -19.0785   34.9797  -17.0720 S   0  0  0  0  0  0  0  0  0  0  0  0
  -19.5220   36.1057  -17.8627 O   0  0  0  0  0  0  0  0  0  0  0  0
  -18.0015   34.1255  -17.5229 O   0  0  0  0  0  0  0  0  0  0  0  0
  -18.6066   35.5727  -15.5441 N   0  0  0  0  0  0  0  0  0  0  0  0
  -20.5085   33.9972  -16.7310 C   0  0  0  0  0  0  0  0  0  0  0  0
  -18.3956   34.5407  -14.4855 C   0  0  0  0  0  0  0  0  0  0  0  0
  -17.4700   36.5385  -15.6371 C   0  0  0  0  0  0  0  0  0  0  0  0
  -20.3732   32.6519  -16.3898 C   0  0  0  0  0  0  0  0  0  0  0  0
  -21.7737   34.5816  -16.8429 C   0  0  0  0  0  0  0  0  0  0  0  0
  -18.5475   35.0132  -13.0979 C   0  0  0  0  0  0  0  0  0  0  0  0
  -17.8792   37.7968  -16.2923 C   0  0  0  0  0  0  0  0  0  0  0  0
  -21.5199   31.8949  -16.1421 C   0  0  0  0  0  0  0  0  0  0  0  0
  -22.9154   33.8140  -16.5930 C   0  0  0  0  0  0  0  0  0  0  0  0
  -18.6981   35.3979  -12.0134 N   0  0  0  0  0  0  0  0  0  0  0  0
  -18.1984   38.8064  -16.7690 N   0  0  0  0  0  0  0  0  0  0  0  0
  -22.7929   32.4682  -16.2389 C   0  0  0  0  0  0  0  0  0  0  0  0
  -23.8245   31.6104  -15.9734 O   0  0  0  0  0  0  0  0  0  0  0  0
  -25.1357   32.1603  -15.9748 C   0  0  0  0  0  0  0  0  0  0  0  0
  -17.3673   34.1673  -14.5765 H   0  0  0  0  0  0  0  0  0  0  0  0
  -19.0469   33.6792  -14.6728 H   0  0  0  0  0  0  0  0  0  0  0  0
  -16.6146   36.0888  -16.1542 H   0  0  0  0  0  0  0  0  0  0  0  0
  -17.1012   36.7836  -14.6339 H   0  0  0  0  0  0  0  0  0  0  0  0
  -19.3952   32.1842  -16.3093 H   0  0  0  0  0  0  0  0  0  0  0  0
  -21.8807   35.6253  -17.1318 H   0  0  0  0  0  0  0  0  0  0  0  0
  -21.4240   30.8469  -15.8665 H   0  0  0  0  0  0  0  0  0  0  0  0
  -23.8842   34.2938  -16.6888 H   0  0  0  0  0  0  0  0  0  0  0  0
  -25.2363   32.9460  -15.2187 H   0  0  0  0  0  0  0  0  0  0  0  0
  -25.8347   31.3589  -15.7169 H   0  0  0  0  0  0  0  0  0  0  0  0
  -25.4062   32.5305  -16.9691 H   0  0  0  0  0  0  0  0  0  0  0  0
  1  2  2  0  0  0  0
  1  3  2  0  0  0  0
  1  4  1  0  0  0  0
  1  5  1  0  0  0  0
  4  6  1  0  0  0  0
  4  7  1  0  0  0  0
  5  8  2  0  0  0  0
  5  9  1  0  0  0  0
  6 10  1  0  0  0  0
  6 19  1  0  0  0  0
  6 20  1  0  0  0  0
  7 11  1  0  0  0  0
  7 21  1  0  0  0  0
  7 22  1  0  0  0  0
  8 12  1  0  0  0  0
  8 23  1  0  0  0  0
  9 13  2  0  0  0  0
  9 24  1  0  0  0  0
 10 14  3  0  0  0  0
 11 15  3  0  0  0  0
 12 16  2  0  0  0  0
 12 25  1  0  0  0  0
 13 16  1  0  0  0  0
 13 26  1  0  0  0  0
 16 17  1  0  0  0  0
 17 18  1  0  0  0  0
 18 27  1  0  0  0  0
 18 28  1  0  0  0  0
 18 29  1  0  0  0  0
M  END
>  <Column 1>
COc1ccc(S(=O)(=O)N(CC#N)CC#N)cc1 ZINC000000029431

>  <Total Molweight>
265.292

>  <cLogP>
0.112

>  <cLogS>
-1.669

>  <H-Acceptors>
6

>  <H-Donors>
0

>  <Total Surface Area>
205.34

>  <MMFF94 Energy>
-23.983

> <Gold.Version>
5.8.1

> <Gold.Id.Protein>
ID|2FQT|mol2

> <Gold.PLP.Fitness>
49.6644

> <Gold.PLP.PLP>
-40.3560

> <Gold.PLP.part.hbond>
-4.0000

> <Gold.PLP.part.metal>
0.0000

> <Gold.PLP.part.buried>
-7.1026

> <Gold.PLP.part.nonpolar>
-30.5294

> <Gold.PLP.part.repulsive>
0.2699

> <Gold.PLP.ligand.clash>
0.0000

> <Gold.PLP.ligand.torsion>
1.4520

> <Gold.PLP.Chemscore.Hbond>
3.2640

> <Gold.PLP.Chemscore.CHOScore>
0.0000

> <Gold.PLP.Chemscore.Metal>
0.0000

> <Gold.Chemscore.Hbonds>
donor molecule, donor type, donor heavy atom, donor atom, acceptor molecule, acceptor atom, score
      P1  H  1223  2649       L1     2  0.99
      P1  H  1223  2650       L1    15  0.88
      P1  H  1230  2756       L1     2  0.43
      P1  H  1466  3954       L1     3  0.96

> <Gold.PLP.Chemscore.Internal.Correction>
2.4203

> <Gold.Protein.RotatedTorsions>
[ 3412  950  949  948 ] final -116.84 input   60.00 | X-H torsion
[ 3476 1244 1243 1240 ] final  -92.48 input   60.00 | X-H torsion
[ 2649 1223 1224 1225 ] final  -33.36 input   60.00 | X-H torsion
[ 4380 1912 1911 1909 ] final -110.41 input   60.00 | X-H torsion
[ 3084  621  620  617 ] final  -46.58 input   60.00 | X-H torsion

> <Gold.Protein.ActiveResidues>
 HIS54   GLU57   HIS58   ALA61   PHE62   ILE64   ARG65   ASP75   ILE76   ILE77  
 ASP78   ILE79   SER80   PRO81   ILE118  PRO119  ALA120  ALA121  ASN122  LYS124 
 GLN125  CYS126  GLY127  CO701   VAL4    GLU5    SER6    PHE7    GLU8    LEU9   
 HIS11   ARG20   HIS21   CYS22   GLY23   VAL24   HIS25   LYS35   ARG39   MET82  
 GLY83   CYS84   TYR89  

> <Gold.Protein.RotatedAtoms>
  -20.8307   37.2779  -17.3592 H   0  0  0  0  0  0  0  0  0  0  0  0  # atno 2649 bound_to 1223
  -20.2859   38.7984  -16.9871 H   0  0  0  0  0  0  0  0  0  0  0  0  # atno 2650 bound_to 1223
  -19.7547   28.3134  -13.6058 H   0  0  0  0  0  0  0  0  0  0  0  0  # atno 3084 bound_to 621 
  -28.4642   39.3255  -29.1031 H   0  0  0  0  0  0  0  0  0  0  0  0  # atno 3412 bound_to 950 
  -28.7515   38.1228  -27.9993 H   0  0  0  0  0  0  0  0  0  0  0  0  # atno 3413 bound_to 950 
  -27.6149   37.9046  -29.1857 H   0  0  0  0  0  0  0  0  0  0  0  0  # atno 3414 bound_to 950 
  -24.4299   32.4755  -20.2718 H   0  0  0  0  0  0  0  0  0  0  0  0  # atno 3476 bound_to 1244
  -20.4306   30.8343  -20.4811 H   0  0  0  0  0  0  0  0  0  0  0  0  # atno 4380 bound_to 1912
  -23.2188   31.4337  -19.9626 LP  0  0  0  0  0  0  0  0  0  0  0  0  # atno 4866 bound_to 1244
  -23.3389   32.1380  -21.4310 LP  0  0  0  0  0  0  0  0  0  0  0  0  # atno 4867 bound_to 1244
  -21.4939   38.1122  -16.1058 LP  0  0  0  0  0  0  0  0  0  0  0  0  # atno 4874 bound_to 1223
  -19.8308   31.9392  -19.4479 LP  0  0  0  0  0  0  0  0  0  0  0  0  # atno 4875 bound_to 1912
  -21.1740   31.0966  -19.0575 LP  0  0  0  0  0  0  0  0  0  0  0  0  # atno 4876 bound_to 1912
  -18.5109   27.3054  -13.8977 LP  0  0  0  0  0  0  0  0  0  0  0  0  # atno 4881 bound_to 621 
  -18.3100   28.5899  -12.9096 LP  0  0  0  0  0  0  0  0  0  0  0  0  # atno 4882 bound_to 621 

$$$$
Compound 145|Decoys_protonated|sdf|145|dock2
  -GOLD-   6122416203D 1   1.00000     0.00000

 25 25  0  0  0  0  0  0  0  0  1 V2000
  -19.9694   34.4239  -17.3131 S   0  0  0  0  0  0  0  0  0  0  0  0
  -20.2541   35.5545  -18.1640 O   0  0  0  0  0  0  0  0  0  0  0  0
  -19.1908   33.2981  -17.7822 O   0  0  0  0  0  0  0  0  0  0  0  0
  -19.1860   34.9872  -15.9165 N   0  0  0  0  0  0  0  0  0  0  0  0
  -21.5152   33.8293  -16.6788 C   0  0  0  0  0  0  0  0  0  0  0  0
  -19.0757   33.9721  -14.8300 C   0  0  0  0  0  0  0  0  0  0  0  0
  -17.8947   35.6792  -16.2189 C   0  0  0  0  0  0  0  0  0  0  0  0
  -22.6599   34.6306  -16.7524 C   0  0  0  0  0  0  0  0  0  0  0  0
  -21.5638   32.5516  -16.1070 C   0  0  0  0  0  0  0  0  0  0  0  0
  -18.7517   34.5784  -13.5233 C   0  0  0  0  0  0  0  0  0  0  0  0
  -18.1032   36.9108  -17.0072 C   0  0  0  0  0  0  0  0  0  0  0  0
  -23.8680   34.1390  -16.2563 C   0  0  0  0  0  0  0  0  0  0  0  0
  -22.7766   32.0696  -15.6146 C   0  0  0  0  0  0  0  0  0  0  0  0
  -18.5071   35.0816  -12.5066 N   0  0  0  0  0  0  0  0  0  0  0  0
  -18.2931   37.8788  -17.6197 N   0  0  0  0  0  0  0  0  0  0  0  0
  -23.9160   32.8655  -15.6945 C   0  0  0  0  0  0  0  0  0  0  0  0
  -25.0787   32.3998  -15.2214 F   0  0  0  0  0  0  0  0  0  0  0  0
  -20.0220   33.4332  -14.7146 H   0  0  0  0  0  0  0  0  0  0  0  0
  -18.3095   33.2340  -15.0948 H   0  0  0  0  0  0  0  0  0  0  0  0
  -17.3824   35.9499  -15.2884 H   0  0  0  0  0  0  0  0  0  0  0  0
  -17.2091   35.0008  -16.7406 H   0  0  0  0  0  0  0  0  0  0  0  0
  -22.6213   35.6294  -17.1815 H   0  0  0  0  0  0  0  0  0  0  0  0
  -20.6678   31.9370  -16.0366 H   0  0  0  0  0  0  0  0  0  0  0  0
  -24.7720   34.7395  -16.2971 H   0  0  0  0  0  0  0  0  0  0  0  0
  -22.8411   31.0829  -15.1649 H   0  0  0  0  0  0  0  0  0  0  0  0
  1  2  2  0  0  0  0
  1  3  2  0  0  0  0
  1  4  1  0  0  0  0
  1  5  1  0  0  0  0
  4  6  1  0  0  0  0
  4  7  1  0  0  0  0
  5  8  2  0  0  0  0
  5  9  1  0  0  0  0
  6 10  1  0  0  0  0
  6 18  1  0  0  0  0
  6 19  1  0  0  0  0
  7 11  1  0  0  0  0
  7 20  1  0  0  0  0
  7 21  1  0  0  0  0
  8 12  1  0  0  0  0
  8 22  1  0  0  0  0
  9 13  2  0  0  0  0
  9 23  1  0  0  0  0
 10 14  3  0  0  0  0
 11 15  3  0  0  0  0
 12 16  2  0  0  0  0
 12 24  1  0  0  0  0
 13 16  1  0  0  0  0
 13 25  1  0  0  0  0
 16 17  1  0  0  0  0
M  END
>  <Column 1>
N#CCN(CC#N)S(=O)(=O)c1ccc(F)cc1 ZINC000000029471

>  <Total Molweight>
253.257

>  <cLogP>
0.2828

>  <cLogS>
-1.965

>  <H-Acceptors>
5

>  <H-Donors>
0

>  <Total Surface Area>
189.43

>  <MMFF94 Energy>
-31.215

> <Gold.Version>
5.8.1

> <Gold.Id.Protein>
ID|2FQT|mol2

> <Gold.PLP.Fitness>
58.4151

> <Gold.PLP.PLP>
-44.5025

> <Gold.PLP.part.hbond>
-6.0000

> <Gold.PLP.part.metal>
0.0000

> <Gold.PLP.part.buried>
-6.9388

> <Gold.PLP.part.nonpolar>
-32.5661

> <Gold.PLP.part.repulsive>
0.1889

> <Gold.PLP.ligand.clash>
0.0000

> <Gold.PLP.ligand.torsion>
1.2763

> <Gold.PLP.Chemscore.Hbond>
4.7033

> <Gold.PLP.Chemscore.CHOScore>
0.0000

> <Gold.PLP.Chemscore.Metal>
0.0000

> <Gold.Chemscore.Hbonds>
donor molecule, donor type, donor heavy atom, donor atom, acceptor molecule, acceptor atom, score
      P1  H  1223  2649       L1     2  0.98
      P1  H  1223  2650       L1    15  0.74
      P1  H  1912  4380       L1     3  0.99
      P1  H  1230  2756       L1    15  1.00
      P1  H  1239  3336       L1     2  1.00

> <Gold.PLP.Chemscore.Internal.Correction>
2.3554

> <Gold.Protein.RotatedTorsions>
[ 3412  950  949  948 ] final  -75.22 input   60.00 | X-H torsion
[ 3476 1244 1243 1240 ] final  -46.15 input   60.00 | X-H torsion
[ 2649 1223 1224 1225 ] final  -52.86 input   60.00 | X-H torsion
[ 4380 1912 1911 1909 ] final  104.26 input   60.00 | X-H torsion
[ 3084  621  620  617 ] final  128.64 input   60.00 | X-H torsion

> <Gold.Protein.ActiveResidues>
 HIS54   GLU57   HIS58   ALA61   PHE62   ILE64   ARG65   ASP75   ILE76   ILE77  
 ASP78   ILE79   SER80   PRO81   ILE118  PRO119  ALA120  ALA121  ASN122  LYS124 
 GLN125  CYS126  GLY127  CO701   VAL4    GLU5    SER6    PHE7    GLU8    LEU9   
 HIS11   ARG20   HIS21   CYS22   GLY23   VAL24   HIS25   LYS35   ARG39   MET82  
 GLY83   CYS84   TYR89  

> <Gold.Protein.RotatedAtoms>
  -21.0670   37.1904  -17.1553 H   0  0  0  0  0  0  0  0  0  0  0  0  # atno 2649 bound_to 1223
  -20.1905   38.5956  -17.2214 H   0  0  0  0  0  0  0  0  0  0  0  0  # atno 2650 bound_to 1223
  -17.9610   27.8874  -13.2877 H   0  0  0  0  0  0  0  0  0  0  0  0  # atno 3084 bound_to 621 
  -28.8528   39.1884  -28.5622 H   0  0  0  0  0  0  0  0  0  0  0  0  # atno 3412 bound_to 950 
  -28.3060   37.6607  -28.2237 H   0  0  0  0  0  0  0  0  0  0  0  0  # atno 3413 bound_to 950 
  -27.6718   38.5037  -29.5022 H   0  0  0  0  0  0  0  0  0  0  0  0  # atno 3414 bound_to 950 
  -24.2426   32.6260  -20.9680 H   0  0  0  0  0  0  0  0  0  0  0  0  # atno 3476 bound_to 1244
  -20.0780   31.9356  -19.1182 H   0  0  0  0  0  0  0  0  0  0  0  0  # atno 4380 bound_to 1912
  -23.8153   31.7555  -19.6612 LP  0  0  0  0  0  0  0  0  0  0  0  0  # atno 4866 bound_to 1244
  -22.9312   31.6646  -21.0312 LP  0  0  0  0  0  0  0  0  0  0  0  0  # atno 4867 bound_to 1244
  -21.3550   38.3982  -16.0759 LP  0  0  0  0  0  0  0  0  0  0  0  0  # atno 4874 bound_to 1223
  -21.2556   30.8418  -19.3728 LP  0  0  0  0  0  0  0  0  0  0  0  0  # atno 4875 bound_to 1912
  -20.1044   31.0848  -20.5051 LP  0  0  0  0  0  0  0  0  0  0  0  0  # atno 4876 bound_to 1912
  -19.2785   28.8199  -13.0813 LP  0  0  0  0  0  0  0  0  0  0  0  0  # atno 4881 bound_to 621 
  -19.3488   27.5044  -14.0463 LP  0  0  0  0  0  0  0  0  0  0  0  0  # atno 4882 bound_to 621 

$$$$
Compound 146|Decoys_protonated|sdf|146|dock6
  -GOLD-   6122416203D 1   1.00000     0.00000

 28 28  0  0  0  0  0  0  0  0  1 V2000
  -19.1165   34.3475  -17.8065 S   0  0  0  0  0  0  0  0  0  0  0  0
  -19.9831   35.4765  -18.0811 O   0  0  0  0  0  0  0  0  0  0  0  0
  -18.7625   33.4122  -18.8509 O   0  0  0  0  0  0  0  0  0  0  0  0
  -17.7314   35.0236  -17.1175 N   0  0  0  0  0  0  0  0  0  0  0  0
  -19.8244   33.4590  -16.4370 C   0  0  0  0  0  0  0  0  0  0  0  0
  -17.0261   35.9906  -17.9044 C   0  0  0  0  0  0  0  0  0  0  0  0
  -17.1631   37.3663  -17.6566 C   0  0  0  0  0  0  0  0  0  0  0  0
  -16.1340   35.5318  -18.8771 C   0  0  0  0  0  0  0  0  0  0  0  0
  -18.0627   37.7262  -16.6853 O   0  0  0  0  0  0  0  0  0  0  0  0
  -16.4092   38.2648  -18.4188 C   0  0  0  0  0  0  0  0  0  0  0  0
  -15.3855   36.4402  -19.6288 C   0  0  0  0  0  0  0  0  0  0  0  0
  -18.1024   39.0976  -16.3110 C   0  0  0  0  0  0  0  0  0  0  0  0
  -15.5212   37.8090  -19.4024 C   0  0  0  0  0  0  0  0  0  0  0  0
  -14.8523   38.8018  -20.0661 O   0  0  0  0  0  0  0  0  0  0  0  0
  -13.9042   38.3965  -21.0461 C   0  0  0  0  0  0  0  0  0  0  0  0
  -17.9383   35.3091  -16.1603 H   0  0  0  0  0  0  0  0  0  0  0  0
  -19.2211   32.5773  -16.2237 H   0  0  0  0  0  0  0  0  0  0  0  0
  -19.8835   34.1227  -15.5725 H   0  0  0  0  0  0  0  0  0  0  0  0
  -20.8301   33.1466  -16.7284 H   0  0  0  0  0  0  0  0  0  0  0  0
  -16.0005   34.4665  -19.0446 H   0  0  0  0  0  0  0  0  0  0  0  0
  -16.4848   39.3376  -18.2726 H   0  0  0  0  0  0  0  0  0  0  0  0
  -14.7017   36.0457  -20.3728 H   0  0  0  0  0  0  0  0  0  0  0  0
  -17.1419   39.4224  -15.8975 H   0  0  0  0  0  0  0  0  0  0  0  0
  -18.8556   39.2065  -15.5246 H   0  0  0  0  0  0  0  0  0  0  0  0
  -18.4076   39.7280  -17.1527 H   0  0  0  0  0  0  0  0  0  0  0  0
  -13.1079   37.7918  -20.5994 H   0  0  0  0  0  0  0  0  0  0  0  0
  -13.4446   39.2992  -21.4597 H   0  0  0  0  0  0  0  0  0  0  0  0
  -14.3920   37.8641  -21.8692 H   0  0  0  0  0  0  0  0  0  0  0  0
  1  2  2  0  0  0  0
  1  3  2  0  0  0  0
  1  4  1  0  0  0  0
  1  5  1  0  0  0  0
  4  6  1  0  0  0  0
  4 16  1  0  0  0  0
  5 17  1  0  0  0  0
  5 18  1  0  0  0  0
  5 19  1  0  0  0  0
  6  7  2  0  0  0  0
  6  8  1  0  0  0  0
  7  9  1  0  0  0  0
  7 10  1  0  0  0  0
  8 11  2  0  0  0  0
  8 20  1  0  0  0  0
  9 12  1  0  0  0  0
 10 13  2  0  0  0  0
 10 21  1  0  0  0  0
 11 13  1  0  0  0  0
 11 22  1  0  0  0  0
 12 23  1  0  0  0  0
 12 24  1  0  0  0  0
 12 25  1  0  0  0  0
 13 14  1  0  0  0  0
 14 15  1  0  0  0  0
 15 26  1  0  0  0  0
 15 27  1  0  0  0  0
 15 28  1  0  0  0  0
M  END
>  <Column 1>
COc1ccc(NS(C)(=O)=O)c(OC)c1 ZINC000000029503

>  <Total Molweight>
231.271

>  <cLogP>
0.5683

>  <cLogS>
-2.739

>  <H-Acceptors>
5

>  <H-Donors>
1

>  <Total Surface Area>
170.08

>  <MMFF94 Energy>
-18.62

> <Gold.Version>
5.8.1

> <Gold.Id.Protein>
ID|2FQT|mol2

> <Gold.PLP.Fitness>
45.4926

> <Gold.PLP.PLP>
-34.9645

> <Gold.PLP.part.hbond>
-5.9146

> <Gold.PLP.part.metal>
0.0000

> <Gold.PLP.part.buried>
-5.5105

> <Gold.PLP.part.nonpolar>
-24.8036

> <Gold.PLP.part.repulsive>
0.1738

> <Gold.PLP.ligand.clash>
0.0000

> <Gold.PLP.ligand.torsion>
0.4744

> <Gold.PLP.Chemscore.Hbond>
3.7984

> <Gold.PLP.Chemscore.CHOScore>
0.0000

> <Gold.PLP.Chemscore.Metal>
0.0000

> <Gold.Chemscore.Hbonds>
donor molecule, donor type, donor heavy atom, donor atom, acceptor molecule, acceptor atom, score
      P1  H  1223  2650       L1     2  0.98
      P1  H  1912  4380       L1     3  1.00
      P1  H  1239  3336       L1     2  1.00
      P1  H  1466  3954       L1     4  0.82

> <Gold.PLP.Chemscore.Internal.Correction>
0.0817

> <Gold.Protein.RotatedTorsions>
[ 3412  950  949  948 ] final  -39.63 input   60.00 | X-H torsion
[ 3476 1244 1243 1240 ] final  -43.87 input   60.00 | X-H torsion
[ 2649 1223 1224 1225 ] final -146.70 input   60.00 | X-H torsion
[ 4380 1912 1911 1909 ] final  116.60 input   60.00 | X-H torsion
[ 3084  621  620  617 ] final -156.82 input   60.00 | X-H torsion

> <Gold.Protein.ActiveResidues>
 HIS54   GLU57   HIS58   ALA61   PHE62   ILE64   ARG65   ASP75   ILE76   ILE77  
 ASP78   ILE79   SER80   PRO81   ILE118  PRO119  ALA120  ALA121  ASN122  LYS124 
 GLN125  CYS126  GLY127  CO701   VAL4    GLU5    SER6    PHE7    GLU8    LEU9   
 HIS11   ARG20   HIS21   CYS22   GLY23   VAL24   HIS25   LYS35   ARG39   MET82  
 GLY83   CYS84   TYR89  

> <Gold.Protein.RotatedAtoms>
  -21.5320   38.0089  -16.1219 H   0  0  0  0  0  0  0  0  0  0  0  0  # atno 2649 bound_to 1223
  -20.7498   37.3292  -17.4154 H   0  0  0  0  0  0  0  0  0  0  0  0  # atno 2650 bound_to 1223
  -18.6601   27.2938  -13.9548 H   0  0  0  0  0  0  0  0  0  0  0  0  # atno 3084 bound_to 621 
  -28.9583   38.7674  -28.1700 H   0  0  0  0  0  0  0  0  0  0  0  0  # atno 3412 bound_to 950 
  -27.9037   37.5782  -28.6403 H   0  0  0  0  0  0  0  0  0  0  0  0  # atno 3413 bound_to 950 
  -27.9686   39.0071  -29.4777 H   0  0  0  0  0  0  0  0  0  0  0  0  # atno 3414 bound_to 950 
  -24.2220   32.6234  -20.9989 H   0  0  0  0  0  0  0  0  0  0  0  0  # atno 3476 bound_to 1244
  -19.9461   31.9504  -19.2696 H   0  0  0  0  0  0  0  0  0  0  0  0  # atno 4380 bound_to 1912
  -23.8453   31.7778  -19.6606 LP  0  0  0  0  0  0  0  0  0  0  0  0  # atno 4866 bound_to 1244
  -22.9219   31.6448  -21.0008 LP  0  0  0  0  0  0  0  0  0  0  0  0  # atno 4867 bound_to 1244
  -20.3459   38.8395  -16.9029 LP  0  0  0  0  0  0  0  0  0  0  0  0  # atno 4874 bound_to 1223
  -21.2342   30.9579  -19.2080 LP  0  0  0  0  0  0  0  0  0  0  0  0  # atno 4875 bound_to 1912
  -20.2585   30.9538  -20.5175 LP  0  0  0  0  0  0  0  0  0  0  0  0  # atno 4876 bound_to 1912
  -18.1956   28.4834  -12.9461 LP  0  0  0  0  0  0  0  0  0  0  0  0  # atno 4881 bound_to 621 
  -19.7276   28.4387  -13.5098 LP  0  0  0  0  0  0  0  0  0  0  0  0  # atno 4882 bound_to 621 

$$$$
Compound 147|Decoys_protonated|sdf|147|dock1
  -GOLD-   6122416203D 1   1.00000     0.00000

 32 33  0  0  0  0  0  0  0  0  1 V2000
  -26.2257   30.0497  -18.8411 S   0  0  0  0  0  0  0  0  0  0  0  0
  -27.0160   28.9052  -18.4417 O   0  0  0  0  0  0  0  0  0  0  0  0
  -26.8365   31.2112  -19.4504 O   0  0  0  0  0  0  0  0  0  0  0  0
  -25.3562   30.5687  -17.4992 N   0  0  0  0  0  0  0  0  0  0  0  0
  -24.9473   29.4666  -19.9388 C   0  0  0  0  0  0  0  0  0  0  0  0
  -24.0516   29.9194  -17.1953 C   0  0  0  0  0  0  0  0  0  0  0  0
  -25.4483   32.0077  -17.1313 C   0  0  0  0  0  0  0  0  0  0  0  0
  -22.8740   30.9115  -17.2384 C   0  0  0  0  0  0  0  0  0  0  0  0
  -24.4849   32.3764  -15.9876 C   0  0  0  0  0  0  0  0  0  0  0  0
  -23.0908   32.0623  -16.3461 N   0  0  0  0  0  0  0  0  0  0  0  0
  -22.0251   32.7731  -15.8190 C   0  0  0  0  0  0  0  0  0  0  0  0
  -21.1085   32.1841  -14.9289 C   0  0  0  0  0  0  0  0  0  0  0  0
  -21.8052   34.1238  -16.1468 C   0  0  0  0  0  0  0  0  0  0  0  0
  -20.0314   32.9005  -14.3939 C   0  0  0  0  0  0  0  0  0  0  0  0
  -20.7320   34.8492  -15.6162 C   0  0  0  0  0  0  0  0  0  0  0  0
  -19.8540   34.2287  -14.7433 C   0  0  0  0  0  0  0  0  0  0  0  0
  -18.8257   34.9184  -14.2336 F   0  0  0  0  0  0  0  0  0  0  0  0
  -24.2828   30.2922  -20.1954 H   0  0  0  0  0  0  0  0  0  0  0  0
  -25.4328   29.0941  -20.8440 H   0  0  0  0  0  0  0  0  0  0  0  0
  -24.4014   28.6541  -19.4572 H   0  0  0  0  0  0  0  0  0  0  0  0
  -24.1307   29.4778  -16.1942 H   0  0  0  0  0  0  0  0  0  0  0  0
  -23.8471   29.0961  -17.8873 H   0  0  0  0  0  0  0  0  0  0  0  0
  -25.2143   32.6252  -18.0055 H   0  0  0  0  0  0  0  0  0  0  0  0
  -26.4729   32.2291  -16.8135 H   0  0  0  0  0  0  0  0  0  0  0  0
  -21.9713   30.3600  -16.9486 H   0  0  0  0  0  0  0  0  0  0  0  0
  -22.7370   31.2768  -18.2631 H   0  0  0  0  0  0  0  0  0  0  0  0
  -24.7549   31.8308  -15.0752 H   0  0  0  0  0  0  0  0  0  0  0  0
  -24.6081   33.4487  -15.7944 H   0  0  0  0  0  0  0  0  0  0  0  0
  -21.2003   31.1376  -14.6510 H   0  0  0  0  0  0  0  0  0  0  0  0
  -22.4851   34.6497  -16.8113 H   0  0  0  0  0  0  0  0  0  0  0  0
  -19.3329   32.4238  -13.7141 H   0  0  0  0  0  0  0  0  0  0  0  0
  -20.5845   35.8917  -15.8784 H   0  0  0  0  0  0  0  0  0  0  0  0
  1  2  2  0  0  0  0
  1  3  2  0  0  0  0
  1  4  1  0  0  0  0
  1  5  1  0  0  0  0
  4  6  1  0  0  0  0
  4  7  1  0  0  0  0
  5 18  1  0  0  0  0
  5 19  1  0  0  0  0
  5 20  1  0  0  0  0
  6  8  1  0  0  0  0
  6 21  1  0  0  0  0
  6 22  1  0  0  0  0
  7  9  1  0  0  0  0
  7 23  1  0  0  0  0
  7 24  1  0  0  0  0
  8 10  1  0  0  0  0
  8 25  1  0  0  0  0
  8 26  1  0  0  0  0
  9 10  1  0  0  0  0
  9 27  1  0  0  0  0
  9 28  1  0  0  0  0
 10 11  1  0  0  0  0
 11 12  2  0  0  0  0
 11 13  1  0  0  0  0
 12 14  1  0  0  0  0
 12 29  1  0  0  0  0
 13 15  2  0  0  0  0
 13 30  1  0  0  0  0
 14 16  2  0  0  0  0
 14 31  1  0  0  0  0
 15 16  1  0  0  0  0
 15 32  1  0  0  0  0
 16 17  1  0  0  0  0
M  END
>  <Column 1>
CS(=O)(=O)N1CCN(c2ccc(F)cc2)CC1 ZINC000000029520

>  <Total Molweight>
258.316

>  <cLogP>
1.1574

>  <cLogS>
-2.237

>  <H-Acceptors>
4

>  <H-Donors>
0

>  <Total Surface Area>
182.59

>  <MMFF94 Energy>
28.116

> <Gold.Version>
5.8.1

> <Gold.Id.Protein>
ID|2FQT|mol2

> <Gold.PLP.Fitness>
51.9156

> <Gold.PLP.PLP>
-43.0011

> <Gold.PLP.part.hbond>
0.0000

> <Gold.PLP.part.metal>
-1.6780

> <Gold.PLP.part.buried>
0.1938

> <Gold.PLP.part.nonpolar>
-43.2330

> <Gold.PLP.part.repulsive>
0.1867

> <Gold.PLP.ligand.clash>
0.0000

> <Gold.PLP.ligand.torsion>
2.3770

> <Gold.PLP.Chemscore.Hbond>
0.0000

> <Gold.PLP.Chemscore.CHOScore>
0.0000

> <Gold.PLP.Chemscore.Metal>
1.9399

> <Gold.Chemscore.Hbonds>
donor molecule, donor type, donor heavy atom, donor atom, acceptor molecule, acceptor atom, score
      P1  M  1222  1222       L1     2  1.00
      P1  M  1222  1222       L1     3  0.94

> <Gold.PLP.Chemscore.Internal.Correction>
2.0289

> <Gold.Protein.RotatedTorsions>
[ 3412  950  949  948 ] final -144.39 input   60.00 | X-H torsion
[ 3476 1244 1243 1240 ] final  154.86 input   60.00 | X-H torsion
[ 2649 1223 1224 1225 ] final   64.84 input   60.00 | X-H torsion
[ 4380 1912 1911 1909 ] final -132.76 input   60.00 | X-H torsion
[ 3084  621  620  617 ] final  125.20 input   60.00 | X-H torsion

> <Gold.Protein.ActiveResidues>
 HIS54   GLU57   HIS58   ALA61   PHE62   ILE64   ARG65   ASP75   ILE76   ILE77  
 ASP78   ILE79   SER80   PRO81   ILE118  PRO119  ALA120  ALA121  ASN122  LYS124 
 GLN125  CYS126  GLY127  CO701   VAL4    GLU5    SER6    PHE7    GLU8    LEU9   
 HIS11   ARG20   HIS21   CYS22   GLY23   VAL24   HIS25   LYS35   ARG39   MET82  
 GLY83   CYS84   TYR89  

> <Gold.Protein.RotatedAtoms>
  -20.1843   38.5672  -17.2463 H   0  0  0  0  0  0  0  0  0  0  0  0  # atno 2649 bound_to 1223
  -21.3381   38.4335  -16.0639 H   0  0  0  0  0  0  0  0  0  0  0  0  # atno 2650 bound_to 1223
  -17.9602   27.9329  -13.2549 H   0  0  0  0  0  0  0  0  0  0  0  0  # atno 3084 bound_to 621 
  -28.1394   39.1680  -29.3813 H   0  0  0  0  0  0  0  0  0  0  0  0  # atno 3412 bound_to 950 
  -28.9245   38.5394  -28.0638 H   0  0  0  0  0  0  0  0  0  0  0  0  # atno 3413 bound_to 950 
  -27.7666   37.6454  -28.8430 H   0  0  0  0  0  0  0  0  0  0  0  0  # atno 3414 bound_to 950 
  -23.3047   31.4691  -19.8858 H   0  0  0  0  0  0  0  0  0  0  0  0  # atno 3476 bound_to 1244
  -20.1413   31.0520  -20.5048 H   0  0  0  0  0  0  0  0  0  0  0  0  # atno 4380 bound_to 1912
  -23.2518   32.0600  -21.4011 LP  0  0  0  0  0  0  0  0  0  0  0  0  # atno 4866 bound_to 1244
  -24.4392   32.5252  -20.3813 LP  0  0  0  0  0  0  0  0  0  0  0  0  # atno 4867 bound_to 1244
  -21.0940   37.2015  -17.1266 LP  0  0  0  0  0  0  0  0  0  0  0  0  # atno 4874 bound_to 1223
  -20.0425   31.9483  -19.1502 LP  0  0  0  0  0  0  0  0  0  0  0  0  # atno 4875 bound_to 1912
  -21.2537   30.8682  -19.3314 LP  0  0  0  0  0  0  0  0  0  0  0  0  # atno 4876 bound_to 1912
  -19.3260   28.8053  -13.1083 LP  0  0  0  0  0  0  0  0  0  0  0  0  # atno 4881 bound_to 621 
  -19.3021   27.4732  -14.0524 LP  0  0  0  0  0  0  0  0  0  0  0  0  # atno 4882 bound_to 621 

$$$$
Compound 148|Decoys_protonated|sdf|148|dock6
  -GOLD-   6122416203D 1   1.00000     0.00000

 36 37  0  0  0  0  0  0  0  0  1 V2000
  -26.1968   30.1473  -19.7568 S   0  0  0  0  0  0  0  0  0  0  0  0
  -27.3997   29.3476  -19.6639 O   0  0  0  0  0  0  0  0  0  0  0  0
  -26.1825   31.4028  -20.4752 O   0  0  0  0  0  0  0  0  0  0  0  0
  -25.6551   30.4498  -18.1752 N   0  0  0  0  0  0  0  0  0  0  0  0
  -24.9025   29.0996  -20.3898 C   0  0  0  0  0  0  0  0  0  0  0  0
  -24.4152   29.7103  -17.7545 C   0  0  0  0  0  0  0  0  0  0  0  0
  -25.5991   31.9163  -17.8425 C   0  0  0  0  0  0  0  0  0  0  0  0
  -23.1609   30.6045  -17.7391 C   0  0  0  0  0  0  0  0  0  0  0  0
  -24.7227   32.2074  -16.6113 C   0  0  0  0  0  0  0  0  0  0  0  0
  -23.3444   31.7467  -16.8275 N   0  0  0  0  0  0  0  0  0  0  0  0
  -22.2751   32.2752  -16.1175 C   0  0  0  0  0  0  0  0  0  0  0  0
  -21.9656   33.6539  -16.0772 C   0  0  0  0  0  0  0  0  0  0  0  0
  -21.4172   31.4335  -15.3852 C   0  0  0  0  0  0  0  0  0  0  0  0
  -22.7548   34.5923  -16.7049 O   0  0  0  0  0  0  0  0  0  0  0  0
  -20.8381   34.1478  -15.4064 C   0  0  0  0  0  0  0  0  0  0  0  0
  -20.3023   31.9225  -14.6905 C   0  0  0  0  0  0  0  0  0  0  0  0
  -22.6737   35.8315  -15.9970 C   0  0  0  0  0  0  0  0  0  0  0  0
  -20.0076   33.2800  -14.7082 C   0  0  0  0  0  0  0  0  0  0  0  0
  -23.9656   29.6556  -20.4317 H   0  0  0  0  0  0  0  0  0  0  0  0
  -25.1890   28.7890  -21.3971 H   0  0  0  0  0  0  0  0  0  0  0  0
  -24.8124   28.2229  -19.7458 H   0  0  0  0  0  0  0  0  0  0  0  0
  -24.6042   29.3123  -16.7495 H   0  0  0  0  0  0  0  0  0  0  0  0
  -24.2351   28.8443  -18.3986 H   0  0  0  0  0  0  0  0  0  0  0  0
  -26.6189   32.2643  -17.6448 H   0  0  0  0  0  0  0  0  0  0  0  0
  -25.2011   32.4729  -18.7004 H   0  0  0  0  0  0  0  0  0  0  0  0
  -22.9589   30.9711  -18.7516 H   0  0  0  0  0  0  0  0  0  0  0  0
  -22.3201   29.9780  -17.4187 H   0  0  0  0  0  0  0  0  0  0  0  0
  -25.1426   31.7059  -15.7310 H   0  0  0  0  0  0  0  0  0  0  0  0
  -24.7426   33.2893  -16.4323 H   0  0  0  0  0  0  0  0  0  0  0  0
  -21.5828   30.3598  -15.3699 H   0  0  0  0  0  0  0  0  0  0  0  0
  -20.6221   35.2121  -15.4241 H   0  0  0  0  0  0  0  0  0  0  0  0
  -19.6592   31.2334  -14.1492 H   0  0  0  0  0  0  0  0  0  0  0  0
  -22.9910   35.7257  -14.9539 H   0  0  0  0  0  0  0  0  0  0  0  0
  -23.3509   36.5386  -16.4852 H   0  0  0  0  0  0  0  0  0  0  0  0
  -21.6604   36.2453  -16.0455 H   0  0  0  0  0  0  0  0  0  0  0  0
  -19.1374   33.6603  -14.1809 H   0  0  0  0  0  0  0  0  0  0  0  0
  1  2  2  0  0  0  0
  1  3  2  0  0  0  0
  1  4  1  0  0  0  0
  1  5  1  0  0  0  0
  4  6  1  0  0  0  0
  4  7  1  0  0  0  0
  5 19  1  0  0  0  0
  5 20  1  0  0  0  0
  5 21  1  0  0  0  0
  6  8  1  0  0  0  0
  6 22  1  0  0  0  0
  6 23  1  0  0  0  0
  7  9  1  0  0  0  0
  7 24  1  0  0  0  0
  7 25  1  0  0  0  0
  8 10  1  0  0  0  0
  8 26  1  0  0  0  0
  8 27  1  0  0  0  0
  9 10  1  0  0  0  0
  9 28  1  0  0  0  0
  9 29  1  0  0  0  0
 10 11  1  0  0  0  0
 11 12  2  0  0  0  0
 11 13  1  0  0  0  0
 12 14  1  0  0  0  0
 12 15  1  0  0  0  0
 13 16  2  0  0  0  0
 13 30  1  0  0  0  0
 14 17  1  0  0  0  0
 15 18  2  0  0  0  0
 15 31  1  0  0  0  0
 16 18  1  0  0  0  0
 16 32  1  0  0  0  0
 17 33  1  0  0  0  0
 17 34  1  0  0  0  0
 17 35  1  0  0  0  0
 18 36  1  0  0  0  0
M  END
>  <Column 1>
COc1ccccc1N1CCN(S(C)(=O)=O)CC1 ZINC000000029521

>  <Total Molweight>
270.352

>  <cLogP>
0.9866

>  <cLogS>
-1.941

>  <H-Acceptors>
5

>  <H-Donors>
0

>  <Total Surface Area>
198.5

>  <MMFF94 Energy>
56.369

> <Gold.Version>
5.8.1

> <Gold.Id.Protein>
ID|2FQT|mol2

> <Gold.PLP.Fitness>
55.1012

> <Gold.PLP.PLP>
-45.6003

> <Gold.PLP.part.hbond>
-2.0000

> <Gold.PLP.part.metal>
-0.8333

> <Gold.PLP.part.buried>
-1.1741

> <Gold.PLP.part.nonpolar>
-43.6968

> <Gold.PLP.part.repulsive>
1.1273

> <Gold.PLP.ligand.clash>
6.7206

> <Gold.PLP.ligand.torsion>
1.4955

> <Gold.PLP.Chemscore.Hbond>
1.6400

> <Gold.PLP.Chemscore.CHOScore>
0.0000

> <Gold.PLP.Chemscore.Metal>
1.0135

> <Gold.Chemscore.Hbonds>
donor molecule, donor type, donor heavy atom, donor atom, acceptor molecule, acceptor atom, score
      P1  H   966  3428       L1     2  1.00
      P1  H  1244  3476       L1     3  0.64
      P1  M  1222  1222       L1     2  1.00
      P1  M  1222  1222       L1     4  0.01

> <Gold.PLP.Chemscore.Internal.Correction>
8.2116

> <Gold.Protein.RotatedTorsions>
[ 3412  950  949  948 ] final -176.93 input   60.00 | X-H torsion
[ 3476 1244 1243 1240 ] final -110.54 input   60.00 | X-H torsion
[ 2649 1223 1224 1225 ] final -132.44 input   60.00 | X-H torsion
[ 4380 1912 1911 1909 ] final -159.33 input   60.00 | X-H torsion
[ 3084  621  620  617 ] final  -22.82 input   60.00 | X-H torsion

> <Gold.Protein.ActiveResidues>
 HIS54   GLU57   HIS58   ALA61   PHE62   ILE64   ARG65   ASP75   ILE76   ILE77  
 ASP78   ILE79   SER80   PRO81   ILE118  PRO119  ALA120  ALA121  ASN122  LYS124 
 GLN125  CYS126  GLY127  CO701   VAL4    GLU5    SER6    PHE7    GLU8    LEU9   
 HIS11   ARG20   HIS21   CYS22   GLY23   VAL24   HIS25   LYS35   ARG39   MET82  
 GLY83   CYS84   TYR89  

> <Gold.Protein.RotatedAtoms>
  -21.5707   37.7943  -16.2163 H   0  0  0  0  0  0  0  0  0  0  0  0  # atno 2649 bound_to 1223
  -20.5832   37.4713  -17.5077 H   0  0  0  0  0  0  0  0  0  0  0  0  # atno 2650 bound_to 1223
  -19.6324   28.5895  -13.3660 H   0  0  0  0  0  0  0  0  0  0  0  0  # atno 3084 bound_to 621 
  -27.8015   38.7779  -29.5261 H   0  0  0  0  0  0  0  0  0  0  0  0  # atno 3412 bound_to 950 
  -28.9387   38.9983  -28.3406 H   0  0  0  0  0  0  0  0  0  0  0  0  # atno 3413 bound_to 950 
  -28.0904   37.5766  -28.4214 H   0  0  0  0  0  0  0  0  0  0  0  0  # atno 3414 bound_to 950 
  -24.3708   32.3278  -20.0247 H   0  0  0  0  0  0  0  0  0  0  0  0  # atno 3476 bound_to 1244
  -19.8662   31.3539  -20.3694 H   0  0  0  0  0  0  0  0  0  0  0  0  # atno 4380 bound_to 1912
  -23.0443   31.4017  -20.1995 LP  0  0  0  0  0  0  0  0  0  0  0  0  # atno 4866 bound_to 1244
  -23.5730   32.3187  -21.4429 LP  0  0  0  0  0  0  0  0  0  0  0  0  # atno 4867 bound_to 1244
  -20.4719   38.9109  -16.7189 LP  0  0  0  0  0  0  0  0  0  0  0  0  # atno 4874 bound_to 1223
  -20.3761   31.8312  -18.8997 LP  0  0  0  0  0  0  0  0  0  0  0  0  # atno 4875 bound_to 1912
  -21.1971   30.6812  -19.7183 LP  0  0  0  0  0  0  0  0  0  0  0  0  # atno 4876 bound_to 1912
  -18.8780   27.3066  -14.0242 LP  0  0  0  0  0  0  0  0  0  0  0  0  # atno 4881 bound_to 621 
  -18.0660   28.3106  -13.0246 LP  0  0  0  0  0  0  0  0  0  0  0  0  # atno 4882 bound_to 621 

$$$$
Compound 149|Decoys_protonated|sdf|149|dock7
  -GOLD-   6122416203D 1   1.00000     0.00000

 37 38  0  0  0  0  0  0  0  0  1 V2000
  -18.1586   35.4197  -17.2035 S   0  0  0  0  0  0  0  0  0  0  0  0
  -18.6847   36.7316  -17.4936 O   0  0  0  0  0  0  0  0  0  0  0  0
  -17.7742   35.0505  -15.8610 O   0  0  0  0  0  0  0  0  0  0  0  0
  -19.2329   34.2642  -17.7941 N   0  0  0  0  0  0  0  0  0  0  0  0
  -16.8298   35.1378  -18.2180 N   0  0  0  0  0  0  0  0  0  0  0  0
  -19.3828   33.0404  -16.9378 C   0  0  0  0  0  0  0  0  0  0  0  0
  -20.5743   34.7755  -18.2420 C   0  0  0  0  0  0  0  0  0  0  0  0
  -16.1698   36.3633  -18.7204 C   0  0  0  0  0  0  0  0  0  0  0  0
  -17.1286   34.1960  -19.3189 C   0  0  0  0  0  0  0  0  0  0  0  0
  -20.3572   33.2674  -15.7684 C   0  0  0  0  0  0  0  0  0  0  0  0
  -21.5804   34.9570  -17.0824 C   0  0  0  0  0  0  0  0  0  0  0  0
  -21.6600   33.7225  -16.2786 N   0  0  0  0  0  0  0  0  0  0  0  0
  -22.7628   32.8928  -16.3720 C   0  0  0  0  0  0  0  0  0  0  0  0
  -24.0436   33.2866  -15.9559 C   0  0  0  0  0  0  0  0  0  0  0  0
  -22.6503   31.6024  -16.9155 C   0  0  0  0  0  0  0  0  0  0  0  0
  -25.1499   32.4331  -16.0571 C   0  0  0  0  0  0  0  0  0  0  0  0
  -23.7497   30.7424  -17.0232 C   0  0  0  0  0  0  0  0  0  0  0  0
  -25.0021   31.1582  -16.5896 C   0  0  0  0  0  0  0  0  0  0  0  0
  -18.4081   32.7121  -16.5628 H   0  0  0  0  0  0  0  0  0  0  0  0
  -19.7483   32.2322  -17.5832 H   0  0  0  0  0  0  0  0  0  0  0  0
  -20.9725   34.0462  -18.9592 H   0  0  0  0  0  0  0  0  0  0  0  0
  -20.4639   35.7150  -18.7930 H   0  0  0  0  0  0  0  0  0  0  0  0
  -16.8111   36.8970  -19.4282 H   0  0  0  0  0  0  0  0  0  0  0  0
  -15.8972   37.0315  -17.8992 H   0  0  0  0  0  0  0  0  0  0  0  0
  -15.2395   36.0941  -19.2315 H   0  0  0  0  0  0  0  0  0  0  0  0
  -17.8983   34.5990  -19.9841 H   0  0  0  0  0  0  0  0  0  0  0  0
  -17.4547   33.2307  -18.9208 H   0  0  0  0  0  0  0  0  0  0  0  0
  -16.2239   34.0096  -19.9067 H   0  0  0  0  0  0  0  0  0  0  0  0
  -19.9587   34.0406  -15.1006 H   0  0  0  0  0  0  0  0  0  0  0  0
  -20.4425   32.3636  -15.1551 H   0  0  0  0  0  0  0  0  0  0  0  0
  -21.2757   35.7798  -16.4284 H   0  0  0  0  0  0  0  0  0  0  0  0
  -22.5445   35.2500  -17.5112 H   0  0  0  0  0  0  0  0  0  0  0  0
  -24.2090   34.2659  -15.5184 H   0  0  0  0  0  0  0  0  0  0  0  0
  -21.6955   31.2562  -17.3030 H   0  0  0  0  0  0  0  0  0  0  0  0
  -26.1253   32.7706  -15.7172 H   0  0  0  0  0  0  0  0  0  0  0  0
  -23.6223   29.7544  -17.4569 H   0  0  0  0  0  0  0  0  0  0  0  0
  -25.8588   30.4958  -16.6728 H   0  0  0  0  0  0  0  0  0  0  0  0
  1  2  2  0  0  0  0
  1  3  2  0  0  0  0
  1  4  1  0  0  0  0
  1  5  1  0  0  0  0
  4  6  1  0  0  0  0
  4  7  1  0  0  0  0
  5  8  1  0  0  0  0
  5  9  1  0  0  0  0
  6 10  1  0  0  0  0
  6 19  1  0  0  0  0
  6 20  1  0  0  0  0
  7 11  1  0  0  0  0
  7 21  1  0  0  0  0
  7 22  1  0  0  0  0
  8 23  1  0  0  0  0
  8 24  1  0  0  0  0
  8 25  1  0  0  0  0
  9 26  1  0  0  0  0
  9 27  1  0  0  0  0
  9 28  1  0  0  0  0
 10 12  1  0  0  0  0
 10 29  1  0  0  0  0
 10 30  1  0  0  0  0
 11 12  1  0  0  0  0
 11 31  1  0  0  0  0
 11 32  1  0  0  0  0
 12 13  1  0  0  0  0
 13 14  2  0  0  0  0
 13 15  1  0  0  0  0
 14 16  1  0  0  0  0
 14 33  1  0  0  0  0
 15 17  2  0  0  0  0
 15 34  1  0  0  0  0
 16 18  2  0  0  0  0
 16 35  1  0  0  0  0
 17 18  1  0  0  0  0
 17 36  1  0  0  0  0
 18 37  1  0  0  0  0
M  END
>  <Column 1>
CN(C)S(=O)(=O)N1CCN(c2ccccc2)CC1 ZINC000000030415

>  <Total Molweight>
269.368

>  <cLogP>
0.9143

>  <cLogS>
-0.956

>  <H-Acceptors>
5

>  <H-Donors>
0

>  <Total Surface Area>
198.8

>  <MMFF94 Energy>
-84.508

> <Gold.Version>
5.8.1

> <Gold.Id.Protein>
ID|2FQT|mol2

> <Gold.PLP.Fitness>
47.5340

> <Gold.PLP.PLP>
-44.9316

> <Gold.PLP.part.hbond>
-3.1865

> <Gold.PLP.part.metal>
0.0000

> <Gold.PLP.part.buried>
-2.5205

> <Gold.PLP.part.nonpolar>
-39.0614

> <Gold.PLP.part.repulsive>
0.1680

> <Gold.PLP.ligand.clash>
0.0000

> <Gold.PLP.ligand.torsion>
1.8540

> <Gold.PLP.Chemscore.Hbond>
1.8581

> <Gold.PLP.Chemscore.CHOScore>
0.0000

> <Gold.PLP.Chemscore.Metal>
0.0000

> <Gold.Chemscore.Hbonds>
donor molecule, donor type, donor heavy atom, donor atom, acceptor molecule, acceptor atom, score
      P1  H  1223  2650       L1     2  0.91
      P1  H  1230  2756       L1     2  0.88
      P1  H  1466  3954       L1     3  0.07

> <Gold.PLP.Chemscore.Internal.Correction>
0.7359

> <Gold.Protein.RotatedTorsions>
[ 3412  950  949  948 ] final  123.60 input   60.00 | X-H torsion
[ 3476 1244 1243 1240 ] final -125.39 input   60.00 | X-H torsion
[ 2649 1223 1224 1225 ] final -108.74 input   60.00 | X-H torsion
[ 4380 1912 1911 1909 ] final  -17.37 input   60.00 | X-H torsion
[ 3084  621  620  617 ] final  144.97 input   60.00 | X-H torsion

> <Gold.Protein.ActiveResidues>
 HIS54   GLU57   HIS58   ALA61   PHE62   ILE64   ARG65   ASP75   ILE76   ILE77  
 ASP78   ILE79   SER80   PRO81   ILE118  PRO119  ALA120  ALA121  ASN122  LYS124 
 GLN125  CYS126  GLY127  CO701   VAL4    GLU5    SER6    PHE7    GLU8    LEU9   
 HIS11   ARG20   HIS21   CYS22   GLY23   VAL24   HIS25   LYS35   ARG39   MET82  
 GLY83   CYS84   TYR89  

> <Gold.Protein.RotatedAtoms>
  -21.5398   37.4804  -16.4507 H   0  0  0  0  0  0  0  0  0  0  0  0  # atno 2649 bound_to 1223
  -20.3504   37.7828  -17.5647 H   0  0  0  0  0  0  0  0  0  0  0  0  # atno 2650 bound_to 1223
  -18.0086   27.6827  -13.4506 H   0  0  0  0  0  0  0  0  0  0  0  0  # atno 3084 bound_to 621 
  -27.6136   37.9099  -29.1906 H   0  0  0  0  0  0  0  0  0  0  0  0  # atno 3412 bound_to 950 
  -28.4692   39.3264  -29.0978 H   0  0  0  0  0  0  0  0  0  0  0  0  # atno 3413 bound_to 950 
  -28.7477   38.1165  -27.9997 H   0  0  0  0  0  0  0  0  0  0  0  0  # atno 3414 bound_to 950 
  -24.2695   32.1827  -19.8597 H   0  0  0  0  0  0  0  0  0  0  0  0  # atno 3476 bound_to 1244
  -21.2490   30.8295  -19.3966 H   0  0  0  0  0  0  0  0  0  0  0  0  # atno 4380 bound_to 1912
  -22.9460   31.4208  -20.4217 LP  0  0  0  0  0  0  0  0  0  0  0  0  # atno 4866 bound_to 1244
  -23.7733   32.4457  -21.3870 LP  0  0  0  0  0  0  0  0  0  0  0  0  # atno 4867 bound_to 1244
  -20.7317   38.9134  -16.4319 LP  0  0  0  0  0  0  0  0  0  0  0  0  # atno 4874 bound_to 1223
  -20.0852   31.1030  -20.5006 LP  0  0  0  0  0  0  0  0  0  0  0  0  # atno 4875 bound_to 1912
  -20.0956   31.9376  -19.0970 LP  0  0  0  0  0  0  0  0  0  0  0  0  # atno 4876 bound_to 1912
  -19.0352   28.8519  -12.9741 LP  0  0  0  0  0  0  0  0  0  0  0  0  # atno 4881 bound_to 621 
  -19.5441   27.6786  -13.9895 LP  0  0  0  0  0  0  0  0  0  0  0  0  # atno 4882 bound_to 621 

$$$$
Compound 150|Decoys_protonated|sdf|150|dock1
  -GOLD-   6122416203D 1   1.00000     0.00000

 29 29  0  0  0  0  0  0  0  0  1 V2000
  -20.2872   34.4553  -17.2986 S   0  0  0  0  0  0  0  0  0  0  0  0
  -19.8557   33.2841  -18.0234 O   0  0  0  0  0  0  0  0  0  0  0  0
  -20.2445   35.7730  -17.8834 O   0  0  0  0  0  0  0  0  0  0  0  0
  -21.8241   34.1590  -16.7080 N   0  0  0  0  0  0  0  0  0  0  0  0
  -19.3962   34.4739  -15.9042 N   0  0  0  0  0  0  0  0  0  0  0  0
  -22.2714   32.7776  -16.5070 C   0  0  0  0  0  0  0  0  0  0  0  0
  -22.8954   35.0991  -17.0568 C   0  0  0  0  0  0  0  0  0  0  0  0
  -19.9463   35.0088  -14.6561 C   0  0  0  0  0  0  0  0  0  0  0  0
  -18.8429   35.1116  -13.5918 C   0  0  1  0  0  0  0  0  0  0  0  0
  -17.7352   35.8744  -14.1235 O   0  0  0  0  0  0  0  0  0  0  0  0
  -19.2756   35.7858  -12.2940 C   0  0  0  0  0  0  0  0  0  0  0  0
  -17.4001   36.8937  -13.1727 C   0  0  0  0  0  0  0  0  0  0  0  0
  -18.6589   37.1601  -12.3822 C   0  0  0  0  0  0  0  0  0  0  0  0
  -18.7434   33.6987  -15.8061 H   0  0  0  0  0  0  0  0  0  0  0  0
  -22.8516   32.4233  -17.3630 H   0  0  0  0  0  0  0  0  0  0  0  0
  -21.4372   32.0923  -16.3380 H   0  0  0  0  0  0  0  0  0  0  0  0
  -22.9061   32.7300  -15.6159 H   0  0  0  0  0  0  0  0  0  0  0  0
  -23.2348   34.9344  -18.0835 H   0  0  0  0  0  0  0  0  0  0  0  0
  -22.5670   36.1359  -16.9451 H   0  0  0  0  0  0  0  0  0  0  0  0
  -23.7479   34.9622  -16.3833 H   0  0  0  0  0  0  0  0  0  0  0  0
  -20.4034   35.9910  -14.8079 H   0  0  0  0  0  0  0  0  0  0  0  0
  -20.7082   34.3101  -14.2964 H   0  0  0  0  0  0  0  0  0  0  0  0
  -18.4773   34.1002  -13.3787 H   0  0  0  0  0  0  0  0  0  0  0  0
  -18.8376   35.2473  -11.4443 H   0  0  0  0  0  0  0  0  0  0  0  0
  -20.3589   35.8044  -12.1420 H   0  0  0  0  0  0  0  0  0  0  0  0
  -16.6000   36.5089  -12.5311 H   0  0  0  0  0  0  0  0  0  0  0  0
  -17.0347   37.7806  -13.6971 H   0  0  0  0  0  0  0  0  0  0  0  0
  -19.3202   37.8313  -12.9413 H   0  0  0  0  0  0  0  0  0  0  0  0
  -18.4619   37.6125  -11.4068 H   0  0  0  0  0  0  0  0  0  0  0  0
  1  2  2  0  0  0  0
  1  3  2  0  0  0  0
  1  4  1  0  0  0  0
  1  5  1  0  0  0  0
  4  6  1  0  0  0  0
  4  7  1  0  0  0  0
  5  8  1  0  0  0  0
  5 14  1  0  0  0  0
  6 15  1  0  0  0  0
  6 16  1  0  0  0  0
  6 17  1  0  0  0  0
  7 18  1  0  0  0  0
  7 19  1  0  0  0  0
  7 20  1  0  0  0  0
  8  9  1  0  0  0  0
  8 21  1  0  0  0  0
  8 22  1  0  0  0  0
  9 10  1  0  0  0  0
  9 11  1  0  0  0  0
  9 23  1  0  0  0  0
 10 12  1  0  0  0  0
 11 13  1  0  0  0  0
 11 24  1  0  0  0  0
 11 25  1  0  0  0  0
 12 13  1  0  0  0  0
 12 26  1  0  0  0  0
 12 27  1  0  0  0  0
 13 28  1  0  0  0  0
 13 29  1  0  0  0  0
M  END
>  <Column 1>
CN(C)S(=O)(=O)NC[C@@H]1CCCO1 ZINC000000030464

>  <Total Molweight>
208.281

>  <cLogP>
-0.3079

>  <cLogS>
-0.641

>  <H-Acceptors>
5

>  <H-Donors>
1

>  <Total Surface Area>
152.4

>  <MMFF94 Energy>
-160.48

> <Gold.Version>
5.8.1

> <Gold.Id.Protein>
ID|2FQT|mol2

> <Gold.PLP.Fitness>
43.8064

> <Gold.PLP.PLP>
-34.9959

> <Gold.PLP.part.hbond>
-4.0000

> <Gold.PLP.part.metal>
0.0000

> <Gold.PLP.part.buried>
-5.2111

> <Gold.PLP.part.nonpolar>
-26.9733

> <Gold.PLP.part.repulsive>
0.2291

> <Gold.PLP.ligand.clash>
0.0000

> <Gold.PLP.ligand.torsion>
1.6596

> <Gold.PLP.Chemscore.Hbond>
3.0468

> <Gold.PLP.Chemscore.CHOScore>
0.0000

> <Gold.PLP.Chemscore.Metal>
0.0000

> <Gold.Chemscore.Hbonds>
donor molecule, donor type, donor heavy atom, donor atom, acceptor molecule, acceptor atom, score
      P1  H  1223  2650       L1     3  1.00
      P1  H  1912  4380       L1     2  1.00
      P1  H  1230  2756       L1     3  0.05
      P1  H  1239  3336       L1     3  1.00

> <Gold.PLP.Chemscore.Internal.Correction>
2.9892

> <Gold.Protein.RotatedTorsions>
[ 3412  950  949  948 ] final   96.39 input   60.00 | X-H torsion
[ 3476 1244 1243 1240 ] final -157.23 input   60.00 | X-H torsion
[ 2649 1223 1224 1225 ] final -167.75 input   60.00 | X-H torsion
[ 4380 1912 1911 1909 ] final   96.48 input   60.00 | X-H torsion
[ 3084  621  620  617 ] final -151.19 input   60.00 | X-H torsion

> <Gold.Protein.ActiveResidues>
 HIS54   GLU57   HIS58   ALA61   PHE62   ILE64   ARG65   ASP75   ILE76   ILE77  
 ASP78   ILE79   SER80   PRO81   ILE118  PRO119  ALA120  ALA121  ASN122  LYS124 
 GLN125  CYS126  GLY127  CO701   VAL4    GLU5    SER6    PHE7    GLU8    LEU9   
 HIS11   ARG20   HIS21   CYS22   GLY23   VAL24   HIS25   LYS35   ARG39   MET82  
 GLY83   CYS84   TYR89  

> <Gold.Protein.RotatedAtoms>
  -21.4019   38.3276  -16.0613 H   0  0  0  0  0  0  0  0  0  0  0  0  # atno 2649 bound_to 1223
  -21.0062   37.2039  -17.2136 H   0  0  0  0  0  0  0  0  0  0  0  0  # atno 2650 bound_to 1223
  -18.7472   27.2951  -13.9841 H   0  0  0  0  0  0  0  0  0  0  0  0  # atno 3084 bound_to 621 
  -27.7605   37.6504  -28.8533 H   0  0  0  0  0  0  0  0  0  0  0  0  # atno 3412 bound_to 950 
  -28.1485   39.1750  -29.3751 H   0  0  0  0  0  0  0  0  0  0  0  0  # atno 3413 bound_to 950 
  -28.9215   38.5275  -28.0596 H   0  0  0  0  0  0  0  0  0  0  0  0  # atno 3414 bound_to 950 
  -23.9281   31.8480  -19.6722 H   0  0  0  0  0  0  0  0  0  0  0  0  # atno 3476 bound_to 1244
  -20.1710   31.9108  -19.0354 H   0  0  0  0  0  0  0  0  0  0  0  0  # atno 4380 bound_to 1912
  -22.9013   31.5907  -20.9081 LP  0  0  0  0  0  0  0  0  0  0  0  0  # atno 4866 bound_to 1244
  -24.1618   32.6130  -21.0893 LP  0  0  0  0  0  0  0  0  0  0  0  0  # atno 4867 bound_to 1244
  -20.2214   38.6490  -17.1613 LP  0  0  0  0  0  0  0  0  0  0  0  0  # atno 4874 bound_to 1223
  -21.2506   30.7789  -19.4841 LP  0  0  0  0  0  0  0  0  0  0  0  0  # atno 4875 bound_to 1912
  -20.0157   31.1727  -20.4773 LP  0  0  0  0  0  0  0  0  0  0  0  0  # atno 4876 bound_to 1912
  -18.1383   28.4163  -12.9741 LP  0  0  0  0  0  0  0  0  0  0  0  0  # atno 4881 bound_to 621 
  -19.6972   28.5045  -13.4522 LP  0  0  0  0  0  0  0  0  0  0  0  0  # atno 4882 bound_to 621 

$$$$
Compound 151|Decoys_protonated|sdf|151|dock3
  -GOLD-   6122416203D 1   1.00000     0.00000

 37 38  0  0  0  0  0  0  0  0  1 V2000
  -19.0498   35.0955  -16.8097 S   0  0  0  0  0  0  0  0  0  0  0  0
  -18.2155   34.0712  -17.3926 O   0  0  0  0  0  0  0  0  0  0  0  0
  -19.4031   36.2901  -17.5424 O   0  0  0  0  0  0  0  0  0  0  0  0
  -20.4859   34.3936  -16.2977 N   0  0  0  0  0  0  0  0  0  0  0  0
  -18.3847   35.5572  -15.3195 N   0  0  0  0  0  0  0  0  0  0  0  0
  -20.4035   32.9666  -15.8563 C   0  0  0  0  0  0  0  0  0  0  0  0
  -21.7196   34.6648  -17.0904 C   0  0  0  0  0  0  0  0  0  0  0  0
  -17.0931   36.2684  -15.4143 C   0  0  0  0  0  0  0  0  0  0  0  0
  -18.3675   34.5163  -14.2718 C   0  0  0  0  0  0  0  0  0  0  0  0
  -21.6729   32.5738  -15.0734 C   0  0  0  0  0  0  0  0  0  0  0  0
  -22.9765   34.2735  -16.2821 C   0  0  0  0  0  0  0  0  0  0  0  0
  -22.8849   32.8582  -15.8650 N   0  0  0  0  0  0  0  0  0  0  0  0
  -23.5702   31.8806  -16.5652 C   0  0  0  0  0  0  0  0  0  0  0  0
  -24.8503   32.0915  -17.1052 C   0  0  0  0  0  0  0  0  0  0  0  0
  -22.9902   30.6182  -16.7887 C   0  0  0  0  0  0  0  0  0  0  0  0
  -25.5268   31.0895  -17.8116 C   0  0  0  0  0  0  0  0  0  0  0  0
  -23.6568   29.6109  -17.4946 C   0  0  0  0  0  0  0  0  0  0  0  0
  -24.9233   29.8565  -17.9975 C   0  0  0  0  0  0  0  0  0  0  0  0
  -25.5679   28.8969  -18.6735 F   0  0  0  0  0  0  0  0  0  0  0  0
  -19.5399   32.8195  -15.2001 H   0  0  0  0  0  0  0  0  0  0  0  0
  -20.2873   32.3213  -16.7343 H   0  0  0  0  0  0  0  0  0  0  0  0
  -21.6937   34.0848  -18.0193 H   0  0  0  0  0  0  0  0  0  0  0  0
  -21.7866   35.7288  -17.3371 H   0  0  0  0  0  0  0  0  0  0  0  0
  -16.3328   35.6381  -15.8852 H   0  0  0  0  0  0  0  0  0  0  0  0
  -17.2097   37.1986  -15.9782 H   0  0  0  0  0  0  0  0  0  0  0  0
  -16.7413   36.5452  -14.4148 H   0  0  0  0  0  0  0  0  0  0  0  0
  -17.5607   33.7985  -14.4504 H   0  0  0  0  0  0  0  0  0  0  0  0
  -19.3164   33.9787  -14.2158 H   0  0  0  0  0  0  0  0  0  0  0  0
  -18.2088   34.9851  -13.2951 H   0  0  0  0  0  0  0  0  0  0  0  0
  -21.6245   31.5301  -14.7439 H   0  0  0  0  0  0  0  0  0  0  0  0
  -21.7207   33.1754  -14.1562 H   0  0  0  0  0  0  0  0  0  0  0  0
  -23.8677   34.4914  -16.8788 H   0  0  0  0  0  0  0  0  0  0  0  0
  -23.0386   34.8971  -15.3813 H   0  0  0  0  0  0  0  0  0  0  0  0
  -25.3635   33.0386  -16.9709 H   0  0  0  0  0  0  0  0  0  0  0  0
  -21.9806   30.4120  -16.4419 H   0  0  0  0  0  0  0  0  0  0  0  0
  -26.5182   31.2694  -18.2141 H   0  0  0  0  0  0  0  0  0  0  0  0
  -23.1871   28.6472  -17.6604 H   0  0  0  0  0  0  0  0  0  0  0  0
  1  2  2  0  0  0  0
  1  3  2  0  0  0  0
  1  4  1  0  0  0  0
  1  5  1  0  0  0  0
  4  6  1  0  0  0  0
  4  7  1  0  0  0  0
  5  8  1  0  0  0  0
  5  9  1  0  0  0  0
  6 10  1  0  0  0  0
  6 20  1  0  0  0  0
  6 21  1  0  0  0  0
  7 11  1  0  0  0  0
  7 22  1  0  0  0  0
  7 23  1  0  0  0  0
  8 24  1  0  0  0  0
  8 25  1  0  0  0  0
  8 26  1  0  0  0  0
  9 27  1  0  0  0  0
  9 28  1  0  0  0  0
  9 29  1  0  0  0  0
 10 12  1  0  0  0  0
 10 30  1  0  0  0  0
 10 31  1  0  0  0  0
 11 12  1  0  0  0  0
 11 32  1  0  0  0  0
 11 33  1  0  0  0  0
 12 13  1  0  0  0  0
 13 14  2  0  0  0  0
 13 15  1  0  0  0  0
 14 16  1  0  0  0  0
 14 34  1  0  0  0  0
 15 17  2  0  0  0  0
 15 35  1  0  0  0  0
 16 18  2  0  0  0  0
 16 36  1  0  0  0  0
 17 18  1  0  0  0  0
 17 37  1  0  0  0  0
 18 19  1  0  0  0  0
M  END
>  <Column 1>
CN(C)S(=O)(=O)N1CCN(c2ccc(F)cc2)CC1 ZINC000000030549

>  <Total Molweight>
287.358

>  <cLogP>
1.0151

>  <cLogS>
-1.27

>  <H-Acceptors>
5

>  <H-Donors>
0

>  <Total Surface Area>
205.15

>  <MMFF94 Energy>
-84.368

> <Gold.Version>
5.8.1

> <Gold.Id.Protein>
ID|2FQT|mol2

> <Gold.PLP.Fitness>
56.6620

> <Gold.PLP.PLP>
-51.0597

> <Gold.PLP.part.hbond>
-3.0000

> <Gold.PLP.part.metal>
0.0000

> <Gold.PLP.part.buried>
-7.8196

> <Gold.PLP.part.nonpolar>
-41.2160

> <Gold.PLP.part.repulsive>
0.0881

> <Gold.PLP.ligand.clash>
0.0000

> <Gold.PLP.ligand.torsion>
1.4235

> <Gold.PLP.Chemscore.Hbond>
2.4560

> <Gold.PLP.Chemscore.CHOScore>
0.0000

> <Gold.PLP.Chemscore.Metal>
0.0000

> <Gold.Chemscore.Hbonds>
donor molecule, donor type, donor heavy atom, donor atom, acceptor molecule, acceptor atom, score
      P1  H  1223  2649       L1     3  1.00
      P1  H  1230  2756       L1     3  0.62
      P1  H  1466  3954       L1     2  0.83

> <Gold.PLP.Chemscore.Internal.Correction>
1.0813

> <Gold.Protein.RotatedTorsions>
[ 3412  950  949  948 ] final -115.97 input   60.00 | X-H torsion
[ 3476 1244 1243 1240 ] final -122.39 input   60.00 | X-H torsion
[ 2649 1223 1224 1225 ] final  -10.62 input   60.00 | X-H torsion
[ 4380 1912 1911 1909 ] final   78.95 input   60.00 | X-H torsion
[ 3084  621  620  617 ] final  -94.50 input   60.00 | X-H torsion

> <Gold.Protein.ActiveResidues>
 HIS54   GLU57   HIS58   ALA61   PHE62   ILE64   ARG65   ASP75   ILE76   ILE77  
 ASP78   ILE79   SER80   PRO81   ILE118  PRO119  ALA120  ALA121  ASN122  LYS124 
 GLN125  CYS126  GLY127  CO701   VAL4    GLU5    SER6    PHE7    GLU8    LEU9   
 HIS11   ARG20   HIS21   CYS22   GLY23   VAL24   HIS25   LYS35   ARG39   MET82  
 GLY83   CYS84   TYR89  

> <Gold.Protein.RotatedAtoms>
  -20.5630   37.4923  -17.5164 H   0  0  0  0  0  0  0  0  0  0  0  0  # atno 2649 bound_to 1223
  -20.4808   38.9271  -16.6908 H   0  0  0  0  0  0  0  0  0  0  0  0  # atno 2650 bound_to 1223
  -19.5455   27.6864  -13.9815 H   0  0  0  0  0  0  0  0  0  0  0  0  # atno 3084 bound_to 621 
  -28.4741   39.3273  -29.0926 H   0  0  0  0  0  0  0  0  0  0  0  0  # atno 3412 bound_to 950 
  -28.7440   38.1104  -28.0001 H   0  0  0  0  0  0  0  0  0  0  0  0  # atno 3413 bound_to 950 
  -27.6124   37.9152  -29.1953 H   0  0  0  0  0  0  0  0  0  0  0  0  # atno 3414 bound_to 950 
  -24.2935   32.2133  -19.8897 H   0  0  0  0  0  0  0  0  0  0  0  0  # atno 3476 bound_to 1244
  -20.3985   31.8138  -18.8930 H   0  0  0  0  0  0  0  0  0  0  0  0  # atno 4380 bound_to 1912
  -22.9622   31.4136  -20.3755 LP  0  0  0  0  0  0  0  0  0  0  0  0  # atno 4866 bound_to 1244
  -23.7329   32.4221  -21.4030 LP  0  0  0  0  0  0  0  0  0  0  0  0  # atno 4867 bound_to 1244
  -21.5656   37.7742  -16.2428 LP  0  0  0  0  0  0  0  0  0  0  0  0  # atno 4874 bound_to 1223
  -21.1879   30.6732  -19.7438 LP  0  0  0  0  0  0  0  0  0  0  0  0  # atno 4875 bound_to 1912
  -19.8493   31.3760  -20.3609 LP  0  0  0  0  0  0  0  0  0  0  0  0  # atno 4876 bound_to 1912
  -18.0048   27.6749  -13.4578 LP  0  0  0  0  0  0  0  0  0  0  0  0  # atno 4881 bound_to 621 
  -19.0268   28.8518  -12.9712 LP  0  0  0  0  0  0  0  0  0  0  0  0  # atno 4882 bound_to 621 

$$$$
Compound 152|Decoys_protonated|sdf|152|dock10
  -GOLD-   6122416203D 1   1.00000     0.00000

 31 31  0  0  0  0  0  0  0  0  1 V2000
  -18.8787   34.5062  -18.0486 S   0  0  0  0  0  0  0  0  0  0  0  0
  -19.4729   35.7217  -17.5490 O   0  0  0  0  0  0  0  0  0  0  0  0
  -19.3019   33.8932  -19.2837 O   0  0  0  0  0  0  0  0  0  0  0  0
  -17.2000   34.7352  -18.1058 N   0  0  0  0  0  0  0  0  0  0  0  0
  -18.9783   33.3670  -16.8448 N   0  0  0  0  0  0  0  0  0  0  0  0
  -16.7158   36.0124  -17.5375 C   0  0  0  0  0  0  0  0  0  0  0  0
  -16.6297   34.4993  -19.4530 C   0  0  0  0  0  0  0  0  0  0  0  0
  -19.6507   33.7604  -15.6075 C   0  0  0  0  0  0  0  0  0  0  0  0
  -21.1067   33.3592  -15.6405 C   0  0  0  0  0  0  0  0  0  0  0  0
  -22.0179   34.0215  -16.4730 C   0  0  0  0  0  0  0  0  0  0  0  0
  -21.5632   32.2995  -14.8449 C   0  0  0  0  0  0  0  0  0  0  0  0
  -23.3600   33.6341  -16.5048 C   0  0  0  0  0  0  0  0  0  0  0  0
  -22.9046   31.9126  -14.8779 C   0  0  0  0  0  0  0  0  0  0  0  0
  -23.8114   32.5693  -15.7169 C   0  0  0  0  0  0  0  0  0  0  0  0
  -25.2590   32.1763  -15.7261 C   0  0  0  0  0  0  0  0  0  0  0  0
  -19.1885   32.4345  -17.1859 H   0  0  0  0  0  0  0  0  0  0  0  0
  -16.9999   36.8598  -18.1684 H   0  0  0  0  0  0  0  0  0  0  0  0
  -17.1007   36.1651  -16.5259 H   0  0  0  0  0  0  0  0  0  0  0  0
  -15.6236   35.9879  -17.4600 H   0  0  0  0  0  0  0  0  0  0  0  0
  -17.0497   35.1964  -20.1845 H   0  0  0  0  0  0  0  0  0  0  0  0
  -16.8154   33.4701  -19.7734 H   0  0  0  0  0  0  0  0  0  0  0  0
  -15.5434   34.6341  -19.4289 H   0  0  0  0  0  0  0  0  0  0  0  0
  -19.1763   33.2842  -14.7422 H   0  0  0  0  0  0  0  0  0  0  0  0
  -19.5806   34.8451  -15.4704 H   0  0  0  0  0  0  0  0  0  0  0  0
  -21.6928   34.8484  -17.1003 H   0  0  0  0  0  0  0  0  0  0  0  0
  -20.8695   31.7690  -14.1949 H   0  0  0  0  0  0  0  0  0  0  0  0
  -24.0530   34.1696  -17.1501 H   0  0  0  0  0  0  0  0  0  0  0  0
  -23.2357   31.0924  -14.2448 H   0  0  0  0  0  0  0  0  0  0  0  0
  -25.3750   31.1076  -15.5183 H   0  0  0  0  0  0  0  0  0  0  0  0
  -25.8061   32.7458  -14.9685 H   0  0  0  0  0  0  0  0  0  0  0  0
  -25.7092   32.3669  -16.7060 H   0  0  0  0  0  0  0  0  0  0  0  0
  1  2  2  0  0  0  0
  1  3  2  0  0  0  0
  1  4  1  0  0  0  0
  1  5  1  0  0  0  0
  4  6  1  0  0  0  0
  4  7  1  0  0  0  0
  5  8  1  0  0  0  0
  5 16  1  0  0  0  0
  6 17  1  0  0  0  0
  6 18  1  0  0  0  0
  6 19  1  0  0  0  0
  7 20  1  0  0  0  0
  7 21  1  0  0  0  0
  7 22  1  0  0  0  0
  8  9  1  0  0  0  0
  8 23  1  0  0  0  0
  8 24  1  0  0  0  0
  9 10  2  0  0  0  0
  9 11  1  0  0  0  0
 10 12  1  0  0  0  0
 10 25  1  0  0  0  0
 11 13  2  0  0  0  0
 11 26  1  0  0  0  0
 12 14  2  0  0  0  0
 12 27  1  0  0  0  0
 13 14  1  0  0  0  0
 13 28  1  0  0  0  0
 14 15  1  0  0  0  0
 15 29  1  0  0  0  0
 15 30  1  0  0  0  0
 15 31  1  0  0  0  0
M  END
>  <Column 1>
Cc1ccc(CNS(=O)(=O)N(C)C)cc1 ZINC000000030724

>  <Total Molweight>
228.315

>  <cLogP>
1.1543

>  <cLogS>
-1.623

>  <H-Acceptors>
4

>  <H-Donors>
1

>  <Total Surface Area>
174.14

>  <MMFF94 Energy>
-175.76

> <Gold.Version>
5.8.1

> <Gold.Id.Protein>
ID|2FQT|mol2

> <Gold.PLP.Fitness>
52.0166

> <Gold.PLP.PLP>
-43.8749

> <Gold.PLP.part.hbond>
-5.3064

> <Gold.PLP.part.metal>
0.0000

> <Gold.PLP.part.buried>
-7.9617

> <Gold.PLP.part.nonpolar>
-31.5366

> <Gold.PLP.part.repulsive>
0.6484

> <Gold.PLP.ligand.clash>
0.0000

> <Gold.PLP.ligand.torsion>
0.7282

> <Gold.PLP.Chemscore.Hbond>
3.0593

> <Gold.PLP.Chemscore.CHOScore>
0.0000

> <Gold.PLP.Chemscore.Metal>
0.0000

> <Gold.Chemscore.Hbonds>
donor molecule, donor type, donor heavy atom, donor atom, acceptor molecule, acceptor atom, score
      P1  H  1223  2649       L1     2  1.00
      P1  H  1912  4380       L1     3  1.00
      P1  H  1239  3336       L1     3  0.07
      P1  H  1466  3954       L1     4  0.99

> <Gold.PLP.Chemscore.Internal.Correction>
0.4201

> <Gold.Protein.RotatedTorsions>
[ 3412  950  949  948 ] final  -88.98 input   60.00 | X-H torsion
[ 3476 1244 1243 1240 ] final -138.89 input   60.00 | X-H torsion
[ 2649 1223 1224 1225 ] final  -31.60 input   60.00 | X-H torsion
[ 4380 1912 1911 1909 ] final  119.19 input   60.00 | X-H torsion
[ 3084  621  620  617 ] final  -43.63 input   60.00 | X-H torsion

> <Gold.Protein.ActiveResidues>
 HIS54   GLU57   HIS58   ALA61   PHE62   ILE64   ARG65   ASP75   ILE76   ILE77  
 ASP78   ILE79   SER80   PRO81   ILE118  PRO119  ALA120  ALA121  ASN122  LYS124 
 GLN125  CYS126  GLY127  CO701   VAL4    GLU5    SER6    PHE7    GLU8    LEU9   
 HIS11   ARG20   HIS21   CYS22   GLY23   VAL24   HIS25   LYS35   ARG39   MET82  
 GLY83   CYS84   TYR89  

> <Gold.Protein.RotatedAtoms>
  -20.8092   37.2905  -17.3748 H   0  0  0  0  0  0  0  0  0  0  0  0  # atno 2649 bound_to 1223
  -20.2980   38.8128  -16.9646 H   0  0  0  0  0  0  0  0  0  0  0  0  # atno 2650 bound_to 1223
  -19.7475   28.3510  -13.5764 H   0  0  0  0  0  0  0  0  0  0  0  0  # atno 3084 bound_to 621 
  -28.7491   39.2830  -28.7435 H   0  0  0  0  0  0  0  0  0  0  0  0  # atno 3412 bound_to 950 
  -28.4673   37.7774  -28.1101 H   0  0  0  0  0  0  0  0  0  0  0  0  # atno 3413 bound_to 950 
  -27.6141   38.2924  -29.4345 H   0  0  0  0  0  0  0  0  0  0  0  0  # atno 3414 bound_to 950 
  -24.1421   32.0410  -19.7497 H   0  0  0  0  0  0  0  0  0  0  0  0  # atno 3476 bound_to 1244
  -19.9215   31.9496  -19.3038 H   0  0  0  0  0  0  0  0  0  0  0  0  # atno 4380 bound_to 1912
  -22.8983   31.4728  -20.6317 LP  0  0  0  0  0  0  0  0  0  0  0  0  # atno 4866 bound_to 1244
  -23.9494   32.5364  -21.2877 LP  0  0  0  0  0  0  0  0  0  0  0  0  # atno 4867 bound_to 1244
  -21.5031   38.0857  -16.1126 LP  0  0  0  0  0  0  0  0  0  0  0  0  # atno 4874 bound_to 1223
  -21.2253   30.9844  -19.1760 LP  0  0  0  0  0  0  0  0  0  0  0  0  # atno 4875 bound_to 1912
  -20.2923   30.9281  -20.5150 LP  0  0  0  0  0  0  0  0  0  0  0  0  # atno 4876 bound_to 1912
  -18.5545   27.2983  -13.9179 LP  0  0  0  0  0  0  0  0  0  0  0  0  # atno 4881 bound_to 621 
  -18.2736   28.5591  -12.9190 LP  0  0  0  0  0  0  0  0  0  0  0  0  # atno 4882 bound_to 621 

$$$$
Compound 153|Decoys_protonated|sdf|153|dock8
  -GOLD-   6122416203D 1   1.00000     0.00000

 28 28  0  0  0  0  0  0  0  0  1 V2000
  -18.4920   35.5815  -16.6561 S   0  0  0  0  0  0  0  0  0  0  0  0
  -18.9743   36.7693  -17.3214 O   0  0  0  0  0  0  0  0  0  0  0  0
  -17.0838   35.3652  -16.4189 O   0  0  0  0  0  0  0  0  0  0  0  0
  -19.3294   35.3866  -15.2054 N   0  0  0  0  0  0  0  0  0  0  0  0
  -19.0875   34.2404  -17.4952 N   0  0  0  0  0  0  0  0  0  0  0  0
  -20.1018   36.5309  -14.6803 C   0  0  0  0  0  0  0  0  0  0  0  0
  -18.7230   34.5486  -14.1509 C   0  0  0  0  0  0  0  0  0  0  0  0
  -18.4181   33.9045  -18.7607 C   0  0  0  0  0  0  0  0  0  0  0  0
  -20.5496   34.0961  -17.5540 C   0  0  0  0  0  0  0  0  0  0  0  0
  -19.2115   37.4136  -13.8109 C   0  0  0  0  0  0  0  0  0  0  0  0
  -17.8048   35.3909  -13.2707 C   0  0  0  0  0  0  0  0  0  0  0  0
  -18.5423   36.6027  -12.7017 C   0  0  0  0  0  0  0  0  0  0  0  0
  -20.9386   36.1398  -14.0883 H   0  0  0  0  0  0  0  0  0  0  0  0
  -20.5553   37.1105  -15.4905 H   0  0  0  0  0  0  0  0  0  0  0  0
  -18.1823   33.6988  -14.5794 H   0  0  0  0  0  0  0  0  0  0  0  0
  -19.5305   34.1152  -13.5476 H   0  0  0  0  0  0  0  0  0  0  0  0
  -18.6931   34.6088  -19.5511 H   0  0  0  0  0  0  0  0  0  0  0  0
  -17.3311   33.8934  -18.6437 H   0  0  0  0  0  0  0  0  0  0  0  0
  -18.7107   32.8982  -19.0783 H   0  0  0  0  0  0  0  0  0  0  0  0
  -20.9889   34.8150  -18.2514 H   0  0  0  0  0  0  0  0  0  0  0  0
  -21.0007   34.2230  -16.5663 H   0  0  0  0  0  0  0  0  0  0  0  0
  -20.8084   33.0867  -17.8909 H   0  0  0  0  0  0  0  0  0  0  0  0
  -19.8075   38.2202  -13.3700 H   0  0  0  0  0  0  0  0  0  0  0  0
  -18.4374   37.8860  -14.4273 H   0  0  0  0  0  0  0  0  0  0  0  0
  -17.4137   34.7784  -12.4509 H   0  0  0  0  0  0  0  0  0  0  0  0
  -16.9424   35.7364  -13.8532 H   0  0  0  0  0  0  0  0  0  0  0  0
  -19.3033   36.2639  -11.9879 H   0  0  0  0  0  0  0  0  0  0  0  0
  -17.8423   37.2375  -12.1475 H   0  0  0  0  0  0  0  0  0  0  0  0
  1  2  2  0  0  0  0
  1  3  2  0  0  0  0
  1  4  1  0  0  0  0
  1  5  1  0  0  0  0
  4  6  1  0  0  0  0
  4  7  1  0  0  0  0
  5  8  1  0  0  0  0
  5  9  1  0  0  0  0
  6 10  1  0  0  0  0
  6 13  1  0  0  0  0
  6 14  1  0  0  0  0
  7 11  1  0  0  0  0
  7 15  1  0  0  0  0
  7 16  1  0  0  0  0
  8 17  1  0  0  0  0
  8 18  1  0  0  0  0
  8 19  1  0  0  0  0
  9 20  1  0  0  0  0
  9 21  1  0  0  0  0
  9 22  1  0  0  0  0
 10 12  1  0  0  0  0
 10 23  1  0  0  0  0
 10 24  1  0  0  0  0
 11 12  1  0  0  0  0
 11 25  1  0  0  0  0
 11 26  1  0  0  0  0
 12 27  1  0  0  0  0
 12 28  1  0  0  0  0
M  END
>  <Column 1>
CN(C)S(=O)(=O)N1CCCCC1 ZINC000000030853

>  <Total Molweight>
192.282

>  <cLogP>
0.4737

>  <cLogS>
-0.498

>  <H-Acceptors>
4

>  <H-Donors>
0

>  <Total Surface Area>
142.5

>  <MMFF94 Energy>
-161.41

> <Gold.Version>
5.8.1

> <Gold.Id.Protein>
ID|2FQT|mol2

> <Gold.PLP.Fitness>
37.4671

> <Gold.PLP.PLP>
-30.4323

> <Gold.PLP.part.hbond>
-2.9306

> <Gold.PLP.part.metal>
0.0000

> <Gold.PLP.part.buried>
-3.4701

> <Gold.PLP.part.nonpolar>
-23.7477

> <Gold.PLP.part.repulsive>
0.1117

> <Gold.PLP.ligand.clash>
0.0000

> <Gold.PLP.ligand.torsion>
1.3171

> <Gold.PLP.Chemscore.Hbond>
2.3650

> <Gold.PLP.Chemscore.CHOScore>
0.0000

> <Gold.PLP.Chemscore.Metal>
0.0000

> <Gold.Chemscore.Hbonds>
donor molecule, donor type, donor heavy atom, donor atom, acceptor molecule, acceptor atom, score
      P1  H  1223  2649       L1     2  0.80
      P1  H  1230  2756       L1     2  0.99
      P1  H  1466  3954       L1     3  0.57

> <Gold.PLP.Chemscore.Internal.Correction>
2.5739

> <Gold.Protein.RotatedTorsions>
[ 3412  950  949  948 ] final -111.39 input   60.00 | X-H torsion
[ 3476 1244 1243 1240 ] final  -16.08 input   60.00 | X-H torsion
[ 2649 1223 1224 1225 ] final    4.43 input   60.00 | X-H torsion
[ 4380 1912 1911 1909 ] final  140.09 input   60.00 | X-H torsion
[ 3084  621  620  617 ] final -139.36 input   60.00 | X-H torsion

> <Gold.Protein.ActiveResidues>
 HIS54   GLU57   HIS58   ALA61   PHE62   ILE64   ARG65   ASP75   ILE76   ILE77  
 ASP78   ILE79   SER80   PRO81   ILE118  PRO119  ALA120  ALA121  ASN122  LYS124 
 GLN125  CYS126  GLY127  CO701   VAL4    GLU5    SER6    PHE7    GLU8    LEU9   
 HIS11   ARG20   HIS21   CYS22   GLY23   VAL24   HIS25   LYS35   ARG39   MET82  
 GLY83   CYS84   TYR89  

> <Gold.Protein.RotatedAtoms>
  -20.4099   37.6856  -17.5612 H   0  0  0  0  0  0  0  0  0  0  0  0  # atno 2649 bound_to 1223
  -20.6455   38.9388  -16.5023 H   0  0  0  0  0  0  0  0  0  0  0  0  # atno 2650 bound_to 1223
  -18.9328   27.3219  -14.0294 H   0  0  0  0  0  0  0  0  0  0  0  0  # atno 3084 bound_to 621 
  -28.5257   39.3335  -29.0364 H   0  0  0  0  0  0  0  0  0  0  0  0  # atno 3412 bound_to 950 
  -28.7028   38.0463  -28.0073 H   0  0  0  0  0  0  0  0  0  0  0  0  # atno 3413 bound_to 950 
  -27.6021   37.9731  -29.2444 H   0  0  0  0  0  0  0  0  0  0  0  0  # atno 3414 bound_to 950 
  -23.9106   32.5180  -21.3058 H   0  0  0  0  0  0  0  0  0  0  0  0  # atno 3476 bound_to 1244
  -19.7672   31.8946  -19.6014 H   0  0  0  0  0  0  0  0  0  0  0  0  # atno 4380 bound_to 1912
  -24.1760   32.0695  -19.7643 LP  0  0  0  0  0  0  0  0  0  0  0  0  # atno 4866 bound_to 1244
  -22.9048   31.4594  -20.5879 LP  0  0  0  0  0  0  0  0  0  0  0  0  # atno 4867 bound_to 1244
  -21.5541   37.5722  -16.3844 LP  0  0  0  0  0  0  0  0  0  0  0  0  # atno 4874 bound_to 1223
  -21.0992   31.2162  -18.9583 LP  0  0  0  0  0  0  0  0  0  0  0  0  # atno 4875 bound_to 1912
  -20.5737   30.7518  -20.4330 LP  0  0  0  0  0  0  0  0  0  0  0  0  # atno 4876 bound_to 1912
  -18.0410   28.2654  -13.0483 LP  0  0  0  0  0  0  0  0  0  0  0  0  # atno 4881 bound_to 621 
  -19.6075   28.6284  -13.3325 LP  0  0  0  0  0  0  0  0  0  0  0  0  # atno 4882 bound_to 621 

$$$$
Compound 154|Decoys_protonated|sdf|154|dock2
  -GOLD-   6122416203D 1   1.00000     0.00000

 13 14  0  0  0  0  0  0  0  0  1 V2000
  -25.4503   29.0316  -19.7134 S   0  0  0  0  0  0  0  0  0  0  0  0
  -26.8037   30.0103  -19.7608 N   0  0  0  0  0  0  0  0  0  0  0  0
  -24.7428   29.8863  -18.3957 C   0  0  0  0  0  0  0  0  0  0  0  0
  -26.7842   30.9633  -18.8450 N   0  0  0  0  0  0  0  0  0  0  0  0
  -25.6335   30.9122  -18.0658 C   0  0  0  0  0  0  0  0  0  0  0  0
  -23.5338   29.6885  -17.7135 C   0  0  0  0  0  0  0  0  0  0  0  0
  -25.2978   31.7782  -17.0050 C   0  0  0  0  0  0  0  0  0  0  0  0
  -23.2268   30.5625  -16.6656 C   0  0  0  0  0  0  0  0  0  0  0  0
  -24.0945   31.5938  -16.3139 C   0  0  0  0  0  0  0  0  0  0  0  0
  -22.8576   28.8849  -17.9875 H   0  0  0  0  0  0  0  0  0  0  0  0
  -25.9754   32.5815  -16.7322 H   0  0  0  0  0  0  0  0  0  0  0  0
  -22.2953   30.4340  -16.1172 H   0  0  0  0  0  0  0  0  0  0  0  0
  -23.8376   32.2633  -15.4957 H   0  0  0  0  0  0  0  0  0  0  0  0
  1  2  1  0  0  0  0
  1  3  1  0  0  0  0
  2  4  2  0  0  0  0
  3  5  2  0  0  0  0
  3  6  1  0  0  0  0
  4  5  1  0  0  0  0
  5  7  1  0  0  0  0
  6  8  2  0  0  0  0
  6 10  1  0  0  0  0
  7  9  2  0  0  0  0
  7 11  1  0  0  0  0
  8  9  1  0  0  0  0
  8 12  1  0  0  0  0
  9 13  1  0  0  0  0
M  END
>  <Column 1>
c1ccc2snnc2c1 ZINC000000031178

>  <Total Molweight>
136.178

>  <cLogP>
1.7675

>  <cLogS>
-2.487

>  <H-Acceptors>
2

>  <H-Donors>
0

>  <Total Surface Area>
101.32

>  <MMFF94 Energy>
23.121

> <Gold.Version>
5.8.1

> <Gold.Id.Protein>
ID|2FQT|mol2

> <Gold.PLP.Fitness>
45.1816

> <Gold.PLP.PLP>
-30.3137

> <Gold.PLP.part.hbond>
-1.0000

> <Gold.PLP.part.metal>
-2.0000

> <Gold.PLP.part.buried>
-4.3695

> <Gold.PLP.part.nonpolar>
-23.3357

> <Gold.PLP.part.repulsive>
0.1713

> <Gold.PLP.ligand.clash>
0.0000

> <Gold.PLP.ligand.torsion>
0.0000

> <Gold.PLP.Chemscore.Hbond>
0.9588

> <Gold.PLP.Chemscore.CHOScore>
0.0000

> <Gold.PLP.Chemscore.Metal>
1.9986

> <Gold.Chemscore.Hbonds>
donor molecule, donor type, donor heavy atom, donor atom, acceptor molecule, acceptor atom, score
      P1  H   966  3428       L1     2  0.96
      P1  M  1222  1222       L1     2  1.00
      P1  M  1222  1222       L1     4  1.00

> <Gold.PLP.Chemscore.Internal.Correction>
0.0000

> <Gold.Protein.RotatedTorsions>
[ 3412  950  949  948 ] final  125.13 input   60.00 | X-H torsion
[ 3476 1244 1243 1240 ] final   16.06 input   60.00 | X-H torsion
[ 2649 1223 1224 1225 ] final  120.66 input   60.00 | X-H torsion
[ 4380 1912 1911 1909 ] final  129.48 input   60.00 | X-H torsion
[ 3084  621  620  617 ] final -147.48 input   60.00 | X-H torsion

> <Gold.Protein.ActiveResidues>
 HIS54   GLU57   HIS58   ALA61   PHE62   ILE64   ARG65   ASP75   ILE76   ILE77  
 ASP78   ILE79   SER80   PRO81   ILE118  PRO119  ALA120  ALA121  ASN122  LYS124 
 GLN125  CYS126  GLY127  CO701   VAL4    GLU5    SER6    PHE7    GLU8    LEU9   
 HIS11   ARG20   HIS21   CYS22   GLY23   VAL24   HIS25   LYS35   ARG39   MET82  
 GLY83   CYS84   TYR89  

> <Gold.Protein.RotatedAtoms>
  -20.6024   38.9415  -16.5479 H   0  0  0  0  0  0  0  0  0  0  0  0  # atno 2649 bound_to 1223
  -21.5684   37.6115  -16.3356 H   0  0  0  0  0  0  0  0  0  0  0  0  # atno 2650 bound_to 1223
  -18.8052   27.3000  -14.0008 H   0  0  0  0  0  0  0  0  0  0  0  0  # atno 3084 bound_to 621 
  -27.6095   37.9288  -29.2074 H   0  0  0  0  0  0  0  0  0  0  0  0  # atno 3412 bound_to 950 
  -28.4867   39.3293  -29.0793 H   0  0  0  0  0  0  0  0  0  0  0  0  # atno 3413 bound_to 950 
  -28.7343   38.0947  -28.0014 H   0  0  0  0  0  0  0  0  0  0  0  0  # atno 3414 bound_to 950 
  -23.4851   32.2553  -21.4418 H   0  0  0  0  0  0  0  0  0  0  0  0  # atno 3476 bound_to 1244
  -19.8349   31.9332  -19.4468 H   0  0  0  0  0  0  0  0  0  0  0  0  # atno 4380 bound_to 1912
  -24.4075   32.3870  -20.1078 LP  0  0  0  0  0  0  0  0  0  0  0  0  # atno 4866 bound_to 1244
  -23.1018   31.4064  -20.1075 LP  0  0  0  0  0  0  0  0  0  0  0  0  # atno 4867 bound_to 1244
  -20.4553   37.6425  -17.5469 LP  0  0  0  0  0  0  0  0  0  0  0  0  # atno 4874 bound_to 1223
  -21.1747   31.0953  -19.0587 LP  0  0  0  0  0  0  0  0  0  0  0  0  # atno 4875 bound_to 1912
  -20.4301   30.8337  -20.4883 LP  0  0  0  0  0  0  0  0  0  0  0  0  # atno 4876 bound_to 1912
  -18.1043   28.3703  -12.9952 LP  0  0  0  0  0  0  0  0  0  0  0  0  # atno 4881 bound_to 621 
  -19.6728   28.5456  -13.4144 LP  0  0  0  0  0  0  0  0  0  0  0  0  # atno 4882 bound_to 621 

$$$$
Compound 155|Decoys_protonated|sdf|155|dock1
  -GOLD-   6122416203D 1   1.00000     0.00000

 26 26  0  0  0  0  0  0  0  0  1 V2000
  -20.8360   35.2586  -17.7957 O   0  0  0  0  0  0  0  0  0  0  0  0
  -21.5061   34.4897  -16.7927 C   0  0  1  0  0  0  0  0  0  0  0  0
  -19.4240   35.1053  -17.7865 C   0  0  0  0  0  0  0  0  0  0  0  0
  -23.0097   34.7108  -16.9814 C   0  0  0  0  0  0  0  0  0  0  0  0
  -21.1605   33.0006  -16.9025 C   0  0  0  0  0  0  0  0  0  0  0  0
  -23.8387   33.8588  -16.0217 C   0  0  0  0  0  0  0  0  0  0  0  0
  -21.9914   32.1551  -15.9373 C   0  0  0  0  0  0  0  0  0  0  0  0
  -23.4972   32.3685  -16.1307 C   0  0  2  0  0  0  0  0  0  0  0  0
  -23.9223   31.9249  -17.4228 O   0  0  0  0  0  0  0  0  0  0  0  0
  -25.3032   31.5975  -17.4885 C   0  0  0  0  0  0  0  0  0  0  0  0
  -21.2236   34.8657  -15.8004 H   0  0  0  0  0  0  0  0  0  0  0  0
  -19.1378   34.0940  -18.0860 H   0  0  0  0  0  0  0  0  0  0  0  0
  -19.0010   35.8065  -18.5112 H   0  0  0  0  0  0  0  0  0  0  0  0
  -19.0141   35.3395  -16.7994 H   0  0  0  0  0  0  0  0  0  0  0  0
  -23.2894   34.4912  -18.0200 H   0  0  0  0  0  0  0  0  0  0  0  0
  -23.2455   35.7719  -16.8336 H   0  0  0  0  0  0  0  0  0  0  0  0
  -20.0977   32.8412  -16.6888 H   0  0  0  0  0  0  0  0  0  0  0  0
  -21.3102   32.6597  -17.9346 H   0  0  0  0  0  0  0  0  0  0  0  0
  -24.9008   34.0135  -16.2459 H   0  0  0  0  0  0  0  0  0  0  0  0
  -23.6667   34.1998  -14.9935 H   0  0  0  0  0  0  0  0  0  0  0  0
  -21.7198   32.4163  -14.9067 H   0  0  0  0  0  0  0  0  0  0  0  0
  -21.7262   31.1024  -16.0780 H   0  0  0  0  0  0  0  0  0  0  0  0
  -24.0565   31.8265  -15.3581 H   0  0  0  0  0  0  0  0  0  0  0  0
  -25.5353   30.7377  -16.8551 H   0  0  0  0  0  0  0  0  0  0  0  0
  -25.9174   32.4561  -17.2009 H   0  0  0  0  0  0  0  0  0  0  0  0
  -25.5414   31.3337  -18.5226 H   0  0  0  0  0  0  0  0  0  0  0  0
  1  2  1  0  0  0  0
  1  3  1  0  0  0  0
  2  4  1  0  0  0  0
  2  5  1  0  0  0  0
  2 11  1  0  0  0  0
  3 12  1  0  0  0  0
  3 13  1  0  0  0  0
  3 14  1  0  0  0  0
  4  6  1  0  0  0  0
  4 15  1  0  0  0  0
  4 16  1  0  0  0  0
  5  7  1  0  0  0  0
  5 17  1  0  0  0  0
  5 18  1  0  0  0  0
  6  8  1  0  0  0  0
  6 19  1  0  0  0  0
  6 20  1  0  0  0  0
  7  8  1  0  0  0  0
  7 21  1  0  0  0  0
  7 22  1  0  0  0  0
  8  9  1  0  0  0  0
  8 23  1  0  0  0  0
  9 10  1  0  0  0  0
 10 24  1  0  0  0  0
 10 25  1  0  0  0  0
 10 26  1  0  0  0  0
M  END
>  <Column 1>
COC1CCC(OC)CC1 ZINC000000031221

>  <Total Molweight>
144.213

>  <cLogP>
1.2036

>  <cLogS>
-1.608

>  <H-Acceptors>
2

>  <H-Donors>
0

>  <Total Surface Area>
124.56

>  <MMFF94 Energy>
20.265

> <Gold.Version>
5.8.1

> <Gold.Id.Protein>
ID|2FQT|mol2

> <Gold.PLP.Fitness>
36.1615

> <Gold.PLP.PLP>
-29.9345

> <Gold.PLP.part.hbond>
-3.6912

> <Gold.PLP.part.metal>
0.0000

> <Gold.PLP.part.buried>
-3.4073

> <Gold.PLP.part.nonpolar>
-23.0190

> <Gold.PLP.part.repulsive>
0.0543

> <Gold.PLP.ligand.clash>
0.0000

> <Gold.PLP.ligand.torsion>
0.2497

> <Gold.PLP.Chemscore.Hbond>
2.2420

> <Gold.PLP.Chemscore.CHOScore>
0.0000

> <Gold.PLP.Chemscore.Metal>
0.0000

> <Gold.Chemscore.Hbonds>
donor molecule, donor type, donor heavy atom, donor atom, acceptor molecule, acceptor atom, score
      P1  H  1244  3476       L1     9  0.24
      P1  H  1223  2649       L1     1  1.00
      P1  H  1239  3336       L1     1  1.00

> <Gold.PLP.Chemscore.Internal.Correction>
0.0006

> <Gold.Protein.RotatedTorsions>
[ 3412  950  949  948 ] final  116.68 input   60.00 | X-H torsion
[ 3476 1244 1243 1240 ] final -171.33 input   60.00 | X-H torsion
[ 2649 1223 1224 1225 ] final  -52.59 input   60.00 | X-H torsion
[ 4380 1912 1911 1909 ] final   -2.89 input   60.00 | X-H torsion
[ 3084  621  620  617 ] final -155.56 input   60.00 | X-H torsion

> <Gold.Protein.ActiveResidues>
 HIS54   GLU57   HIS58   ALA61   PHE62   ILE64   ARG65   ASP75   ILE76   ILE77  
 ASP78   ILE79   SER80   PRO81   ILE118  PRO119  ALA120  ALA121  ASN122  LYS124 
 GLN125  CYS126  GLY127  CO701   VAL4    GLU5    SER6    PHE7    GLU8    LEU9   
 HIS11   ARG20   HIS21   CYS22   GLY23   VAL24   HIS25   LYS35   ARG39   MET82  
 GLY83   CYS84   TYR89  

> <Gold.Protein.RotatedAtoms>
  -21.0638   37.1910  -17.1585 H   0  0  0  0  0  0  0  0  0  0  0  0  # atno 2649 bound_to 1223
  -20.1913   38.5989  -17.2183 H   0  0  0  0  0  0  0  0  0  0  0  0  # atno 2650 bound_to 1223
  -18.6794   27.2935  -13.9617 H   0  0  0  0  0  0  0  0  0  0  0  0  # atno 3084 bound_to 621 
  -27.6377   37.8298  -29.1111 H   0  0  0  0  0  0  0  0  0  0  0  0  # atno 3412 bound_to 950 
  -28.3890   39.3057  -29.1782 H   0  0  0  0  0  0  0  0  0  0  0  0  # atno 3413 bound_to 950 
  -28.8037   38.2174  -27.9988 H   0  0  0  0  0  0  0  0  0  0  0  0  # atno 3414 bound_to 950 
  -23.7441   31.7103  -19.6735 H   0  0  0  0  0  0  0  0  0  0  0  0  # atno 3476 bound_to 1244
  -21.2260   30.9636  -19.2039 H   0  0  0  0  0  0  0  0  0  0  0  0  # atno 4380 bound_to 1912
  -22.9568   31.7116  -21.0976 LP  0  0  0  0  0  0  0  0  0  0  0  0  # atno 4866 bound_to 1244
  -24.2917   32.6308  -20.8985 LP  0  0  0  0  0  0  0  0  0  0  0  0  # atno 4867 bound_to 1244
  -21.3573   38.3944  -16.0757 LP  0  0  0  0  0  0  0  0  0  0  0  0  # atno 4874 bound_to 1223
  -20.2651   30.9487  -20.5171 LP  0  0  0  0  0  0  0  0  0  0  0  0  # atno 4875 bound_to 1912
  -19.9388   31.9567  -19.2745 LP  0  0  0  0  0  0  0  0  0  0  0  0  # atno 4876 bound_to 1912
  -18.1822   28.4687  -12.9519 LP  0  0  0  0  0  0  0  0  0  0  0  0  # atno 4881 bound_to 621 
  -19.7215   28.4537  -13.4969 LP  0  0  0  0  0  0  0  0  0  0  0  0  # atno 4882 bound_to 621 

$$$$
Compound 156|Decoys_protonated|sdf|156|dock5
  -GOLD-   6122416203D 1   1.00000     0.00000

 16 17  0  0  0  0  0  0  0  0  1 V2000
  -16.9897   38.6059  -16.9435 O   0  0  0  0  0  0  0  0  0  0  0  0
  -17.1934   37.4896  -17.4050 C   0  0  0  0  0  0  0  0  0  0  0  0
  -16.2196   36.7827  -18.0776 N   0  0  0  0  0  0  0  0  0  0  0  0
  -18.4041   36.8557  -17.2895 N   0  0  0  0  0  0  0  0  0  0  0  0
  -16.3583   35.5288  -18.6270 C   0  0  0  0  0  0  0  0  0  0  0  0
  -18.6000   35.6204  -17.8103 C   0  0  0  0  0  0  0  0  0  0  0  0
  -15.4621   34.9408  -19.2161 O   0  0  0  0  0  0  0  0  0  0  0  0
  -17.6753   34.9353  -18.4555 C   0  0  0  0  0  0  0  0  0  0  0  0
  -19.8056   34.7934  -17.7884 C   0  0  0  0  0  0  0  0  0  0  0  0
  -18.1634   33.6367  -18.9058 C   0  0  0  0  0  0  0  0  0  0  0  0
  -20.8652   35.1017  -17.2763 O   0  0  0  0  0  0  0  0  0  0  0  0
  -19.5283   33.6228  -18.4417 O   0  0  0  0  0  0  0  0  0  0  0  0
  -15.3215   37.2333  -18.1728 H   0  0  0  0  0  0  0  0  0  0  0  0
  -19.1553   37.3345  -16.8025 H   0  0  0  0  0  0  0  0  0  0  0  0
  -18.1595   33.5367  -19.9948 H   0  0  0  0  0  0  0  0  0  0  0  0
  -17.6264   32.8005  -18.4491 H   0  0  0  0  0  0  0  0  0  0  0  0
  1  2  2  0  0  0  0
  2  3  1  0  0  0  0
  2  4  1  0  0  0  0
  3  5  1  0  0  0  0
  3 13  1  0  0  0  0
  4  6  1  0  0  0  0
  4 14  1  0  0  0  0
  5  7  2  0  0  0  0
  5  8  1  0  0  0  0
  6  9  1  0  0  0  0
  6  8  2  0  0  0  0
  8 10  1  0  0  0  0
  9 11  2  0  0  0  0
  9 12  1  0  0  0  0
 10 12  1  0  0  0  0
 10 15  1  0  0  0  0
 10 16  1  0  0  0  0
M  END
>  <Column 1>
O=C1OCc2c1[nH]c(=O)[nH]c2=O ZINC000000031381

>  <Total Molweight>
168.108

>  <cLogP>
-1.6133

>  <cLogS>
-1.081

>  <H-Acceptors>
6

>  <H-Donors>
2

>  <Total Surface Area>
109.35

>  <MMFF94 Energy>
-120.5

> <Gold.Version>
5.8.1

> <Gold.Id.Protein>
ID|2FQT|mol2

> <Gold.PLP.Fitness>
32.5752

> <Gold.PLP.PLP>
-26.6015

> <Gold.PLP.part.hbond>
-2.9543

> <Gold.PLP.part.metal>
0.0000

> <Gold.PLP.part.buried>
-7.2598

> <Gold.PLP.part.nonpolar>
-17.3014

> <Gold.PLP.part.repulsive>
0.3573

> <Gold.PLP.ligand.clash>
0.0000

> <Gold.PLP.ligand.torsion>
0.0000

> <Gold.PLP.Chemscore.Hbond>
1.9913

> <Gold.PLP.Chemscore.CHOScore>
0.0000

> <Gold.PLP.Chemscore.Metal>
0.0000

> <Gold.Chemscore.Hbonds>
donor molecule, donor type, donor heavy atom, donor atom, acceptor molecule, acceptor atom, score
      P1  H  1223  2649       L1    11  0.99
      P1  H  1912  4380       L1    12  1.00

> <Gold.PLP.Chemscore.Internal.Correction>
0.0000

> <Gold.Protein.RotatedTorsions>
[ 3412  950  949  948 ] final   36.48 input   60.00 | X-H torsion
[ 3476 1244 1243 1240 ] final  128.40 input   60.00 | X-H torsion
[ 2649 1223 1224 1225 ] final  -48.30 input   60.00 | X-H torsion
[ 4380 1912 1911 1909 ] final  104.46 input   60.00 | X-H torsion
[ 3084  621  620  617 ] final  -35.00 input   60.00 | X-H torsion

> <Gold.Protein.ActiveResidues>
 HIS54   GLU57   HIS58   ALA61   PHE62   ILE64   ARG65   ASP75   ILE76   ILE77  
 ASP78   ILE79   SER80   PRO81   ILE118  PRO119  ALA120  ALA121  ASN122  LYS124 
 GLN125  CYS126  GLY127  CO701   VAL4    GLU5    SER6    PHE7    GLU8    LEU9   
 HIS11   ARG20   HIS21   CYS22   GLY23   VAL24   HIS25   LYS35   ARG39   MET82  
 GLY83   CYS84   TYR89  

> <Gold.Protein.RotatedAtoms>
  -21.0128   37.2021  -17.2074 H   0  0  0  0  0  0  0  0  0  0  0  0  # atno 2649 bound_to 1223
  -20.2061   38.6494  -17.1699 H   0  0  0  0  0  0  0  0  0  0  0  0  # atno 2650 bound_to 1223
  -19.7133   28.4563  -13.4893 H   0  0  0  0  0  0  0  0  0  0  0  0  # atno 3084 bound_to 621 
  -28.4040   37.7261  -28.1510 H   0  0  0  0  0  0  0  0  0  0  0  0  # atno 3412 bound_to 950 
  -27.6326   38.3759  -29.4663 H   0  0  0  0  0  0  0  0  0  0  0  0  # atno 3413 bound_to 950 
  -28.7939   39.2508  -28.6707 H   0  0  0  0  0  0  0  0  0  0  0  0  # atno 3414 bound_to 950 
  -23.0389   31.4078  -20.2163 H   0  0  0  0  0  0  0  0  0  0  0  0  # atno 3476 bound_to 1244
  -20.0757   31.9361  -19.1205 H   0  0  0  0  0  0  0  0  0  0  0  0  # atno 4380 bound_to 1912
  -23.5872   32.3285  -21.4409 LP  0  0  0  0  0  0  0  0  0  0  0  0  # atno 4866 bound_to 1244
  -24.3714   32.3184  -20.0086 LP  0  0  0  0  0  0  0  0  0  0  0  0  # atno 4867 bound_to 1244
  -21.3930   38.3337  -16.0752 LP  0  0  0  0  0  0  0  0  0  0  0  0  # atno 4874 bound_to 1223
  -21.2556   30.8435  -19.3700 LP  0  0  0  0  0  0  0  0  0  0  0  0  # atno 4875 bound_to 1912
  -20.1068   31.0826  -20.5057 LP  0  0  0  0  0  0  0  0  0  0  0  0  # atno 4876 bound_to 1912
  -18.6862   27.2893  -13.9701 LP  0  0  0  0  0  0  0  0  0  0  0  0  # atno 4881 bound_to 621 
  -18.1764   28.4621  -12.9546 LP  0  0  0  0  0  0  0  0  0  0  0  0  # atno 4882 bound_to 621 

$$$$
Compound 157|Decoys_protonated|sdf|157|dock3
  -GOLD-   6122416203D 1   1.00000     0.00000

 17 18  0  0  0  0  0  0  0  0  3 V2000
  -26.7372   29.3978  -19.7536 O   0  0  0  0  0  0  0  0  0  0  0  0
  -26.5482   30.5072  -19.2417 N   0  3  0  0  0  0  0  0  0  0  0  0
  -27.2233   31.5180  -19.4746 O   0  5  0  0  0  0  0  0  0  0  0  0
  -25.4606   30.6194  -18.3084 C   0  0  0  0  0  0  0  0  0  0  0  0
  -24.5343   29.4909  -18.0699 C   0  0  0  0  0  0  0  0  0  0  0  0
  -25.2511   31.7507  -17.6238 C   0  0  0  0  0  0  0  0  0  0  0  0
  -23.5275   29.5184  -17.2404 N   0  0  0  0  0  0  0  0  0  0  0  0
  -24.1853   31.8027  -16.7353 N   0  0  0  0  0  0  0  0  0  0  0  0
  -23.3419   30.6934  -16.5554 C   0  0  0  0  0  0  0  0  0  0  0  0
  -23.8145   32.8479  -15.9592 N   0  0  0  0  0  0  0  0  0  0  0  0
  -22.4102   31.0881  -15.6201 C   0  0  0  0  0  0  0  0  0  0  0  0
  -22.7457   32.4087  -15.2917 C   0  0  0  0  0  0  0  0  0  0  0  0
  -21.3371   30.3124  -15.1020 C   0  0  0  0  0  0  0  0  0  0  0  0
  -20.4884   29.6504  -14.6681 N   0  0  0  0  0  0  0  0  0  0  0  0
  -24.7145   28.5631  -18.6379 H   0  0  0  0  0  0  0  0  0  0  0  0
  -25.8496   32.6497  -17.7004 H   0  0  0  0  0  0  0  0  0  0  0  0
  -22.2565   33.0757  -14.5915 H   0  0  0  0  0  0  0  0  0  0  0  0
  1  2  2  0  0  0  0
  2  3  1  0  0  0  0
  2  4  1  0  0  0  0
  4  5  1  0  0  0  0
  4  6  2  0  0  0  0
  5  7  2  0  0  0  0
  5 15  1  0  0  0  0
  6  8  1  0  0  0  0
  6 16  1  0  0  0  0
  7  9  1  0  0  0  0
  8 10  1  0  0  0  0
  8  9  1  0  0  0  0
  9 11  2  0  0  0  0
 10 12  2  0  0  0  0
 11 13  1  0  0  0  0
 11 12  1  0  0  0  0
 12 17  1  0  0  0  0
 13 14  3  0  0  0  0
M  CHG  1   2   1
M  CHG  1   3  -1
M  END
>  <Column 1>
N#Cc1cnn2cc([N+](=O)[O-])cnc12 ZINC000000031426

>  <Total Molweight>
189.134

>  <cLogP>
-1.5237

>  <cLogS>
-2.671

>  <H-Acceptors>
6

>  <H-Donors>
0

>  <Total Surface Area>
141.41

>  <MMFF94 Energy>
30.051

> <Gold.Version>
5.8.1

> <Gold.Id.Protein>
ID|2FQT|mol2

> <Gold.PLP.Fitness>
49.4907

> <Gold.PLP.PLP>
-31.7840

> <Gold.PLP.part.hbond>
-2.0000

> <Gold.PLP.part.metal>
-2.0000

> <Gold.PLP.part.buried>
-0.4056

> <Gold.PLP.part.nonpolar>
-31.4600

> <Gold.PLP.part.repulsive>
2.0256

> <Gold.PLP.ligand.clash>
0.0000

> <Gold.PLP.ligand.torsion>
0.0143

> <Gold.PLP.Chemscore.Hbond>
2.0000

> <Gold.PLP.Chemscore.CHOScore>
0.0000

> <Gold.PLP.Chemscore.Metal>
1.9559

> <Gold.Chemscore.Hbonds>
donor molecule, donor type, donor heavy atom, donor atom, acceptor molecule, acceptor atom, score
      P1  H   966  3428       L1     1  1.00
      P1  H   621  3084       L1    14  1.00
      P1  M  1222  1222       L1     1  0.97
      P1  M  1222  1222       L1     3  0.99

> <Gold.PLP.Chemscore.Internal.Correction>
0.0000

> <Gold.Protein.RotatedTorsions>
[ 3412  950  949  948 ] final  -33.59 input   60.00 | X-H torsion
[ 3476 1244 1243 1240 ] final -135.05 input   60.00 | X-H torsion
[ 2649 1223 1224 1225 ] final -174.79 input   60.00 | X-H torsion
[ 4380 1912 1911 1909 ] final  126.43 input   60.00 | X-H torsion
[ 3084  621  620  617 ] final  -34.74 input   60.00 | X-H torsion

> <Gold.Protein.ActiveResidues>
 HIS54   GLU57   HIS58   ALA61   PHE62   ILE64   ARG65   ASP75   ILE76   ILE77  
 ASP78   ILE79   SER80   PRO81   ILE118  PRO119  ALA120  ALA121  ASN122  LYS124 
 GLN125  CYS126  GLY127  CO701   VAL4    GLU5    SER6    PHE7    GLU8    LEU9   
 HIS11   ARG20   HIS21   CYS22   GLY23   VAL24   HIS25   LYS35   ARG39   MET82  
 GLY83   CYS84   TYR89  

> <Gold.Protein.RotatedAtoms>
  -21.3414   38.4284  -16.0635 H   0  0  0  0  0  0  0  0  0  0  0  0  # atno 2649 bound_to 1223
  -21.0897   37.1871  -17.1325 H   0  0  0  0  0  0  0  0  0  0  0  0  # atno 2650 bound_to 1223
  -19.7120   28.4593  -13.4867 H   0  0  0  0  0  0  0  0  0  0  0  0  # atno 3084 bound_to 621 
  -28.9505   38.6789  -28.1224 H   0  0  0  0  0  0  0  0  0  0  0  0  # atno 3412 bound_to 950 
  -27.8456   37.5977  -28.7204 H   0  0  0  0  0  0  0  0  0  0  0  0  # atno 3413 bound_to 950 
  -28.0343   39.0763  -29.4452 H   0  0  0  0  0  0  0  0  0  0  0  0  # atno 3414 bound_to 950 
  -24.1813   32.0818  -19.7767 H   0  0  0  0  0  0  0  0  0  0  0  0  # atno 3476 bound_to 1244
  -19.8584   31.9403  -19.4035 H   0  0  0  0  0  0  0  0  0  0  0  0  # atno 4380 bound_to 1912
  -22.9076   31.4548  -20.5719 LP  0  0  0  0  0  0  0  0  0  0  0  0  # atno 4866 bound_to 1244
  -23.9005   32.5134  -21.3203 LP  0  0  0  0  0  0  0  0  0  0  0  0  # atno 4867 bound_to 1244
  -20.1988   38.5662  -17.2391 LP  0  0  0  0  0  0  0  0  0  0  0  0  # atno 4874 bound_to 1223
  -21.1921   31.0616  -19.0916 LP  0  0  0  0  0  0  0  0  0  0  0  0  # atno 4875 bound_to 1912
  -20.3890   30.8603  -20.4991 LP  0  0  0  0  0  0  0  0  0  0  0  0  # atno 4876 bound_to 1912
  -18.6902   27.2893  -13.9714 LP  0  0  0  0  0  0  0  0  0  0  0  0  # atno 4881 bound_to 621 
  -18.1737   28.4591  -12.9558 LP  0  0  0  0  0  0  0  0  0  0  0  0  # atno 4882 bound_to 621 

$$$$
Compound 158|Decoys_protonated|sdf|158|dock4
  -GOLD-   6122416203D 1   1.00000     0.00000

 22 23  0  0  0  0  0  0  0  0  1 V2000
  -22.9646   35.3529  -16.5014 F   0  0  0  0  0  0  0  0  0  0  0  0
  -22.9626   34.0125  -16.5570 C   0  0  0  0  0  0  0  0  0  0  0  0
  -21.7672   33.3004  -16.3828 C   0  0  0  0  0  0  0  0  0  0  0  0
  -24.1578   33.3588  -16.8354 C   0  0  0  0  0  0  0  0  0  0  0  0
  -20.5679   33.9795  -16.0895 N   0  0  0  0  0  0  0  0  0  0  0  0
  -21.7832   31.9051  -16.5132 C   0  0  0  0  0  0  0  0  0  0  0  0
  -24.1555   31.9759  -16.9476 C   0  0  0  0  0  0  0  0  0  0  0  0
  -20.0188   34.9434  -16.8942 C   0  0  0  0  0  0  0  0  0  0  0  0
  -19.8043   33.7183  -14.9796 C   0  0  0  0  0  0  0  0  0  0  0  0
  -22.9816   31.2437  -16.7935 C   0  0  0  0  0  0  0  0  0  0  0  0
  -25.2994   31.3346  -17.2180 F   0  0  0  0  0  0  0  0  0  0  0  0
  -20.4526   35.3819  -17.9502 O   0  0  0  0  0  0  0  0  0  0  0  0
  -18.7192   35.3852  -16.2884 C   0  0  0  0  0  0  0  0  0  0  0  0
  -19.9493   32.8299  -14.1526 O   0  0  0  0  0  0  0  0  0  0  0  0
  -18.6920   34.7230  -14.9266 C   0  0  0  0  0  0  0  0  0  0  0  0
  -25.0737   33.9215  -16.9700 H   0  0  0  0  0  0  0  0  0  0  0  0
  -20.8713   31.3234  -16.3984 H   0  0  0  0  0  0  0  0  0  0  0  0
  -23.0065   30.1625  -16.8952 H   0  0  0  0  0  0  0  0  0  0  0  0
  -17.8952   35.0350  -16.9181 H   0  0  0  0  0  0  0  0  0  0  0  0
  -18.6807   36.4750  -16.2099 H   0  0  0  0  0  0  0  0  0  0  0  0
  -17.7346   34.2306  -14.7363 H   0  0  0  0  0  0  0  0  0  0  0  0
  -18.8982   35.4417  -14.1274 H   0  0  0  0  0  0  0  0  0  0  0  0
  1  2  1  0  0  0  0
  2  3  2  0  0  0  0
  2  4  1  0  0  0  0
  3  5  1  0  0  0  0
  3  6  1  0  0  0  0
  4  7  2  0  0  0  0
  4 16  1  0  0  0  0
  5  8  1  0  0  0  0
  5  9  1  0  0  0  0
  6 10  2  0  0  0  0
  6 17  1  0  0  0  0
  7 11  1  0  0  0  0
  7 10  1  0  0  0  0
  8 12  2  0  0  0  0
  8 13  1  0  0  0  0
  9 14  2  0  0  0  0
  9 15  1  0  0  0  0
 10 18  1  0  0  0  0
 13 15  1  0  0  0  0
 13 19  1  0  0  0  0
 13 20  1  0  0  0  0
 15 21  1  0  0  0  0
 15 22  1  0  0  0  0
M  END
>  <Column 1>
O=C1CCC(=O)N1c1ccc(F)cc1F ZINC000000031532

>  <Total Molweight>
211.167

>  <cLogP>
1.2198

>  <cLogS>
-2.93

>  <H-Acceptors>
3

>  <H-Donors>
0

>  <Total Surface Area>
145.78

>  <MMFF94 Energy>
-10.083

> <Gold.Version>
5.8.1

> <Gold.Id.Protein>
ID|2FQT|mol2

> <Gold.PLP.Fitness>
44.9388

> <Gold.PLP.PLP>
-39.0090

> <Gold.PLP.part.hbond>
-3.0000

> <Gold.PLP.part.metal>
0.0000

> <Gold.PLP.part.buried>
-6.8252

> <Gold.PLP.part.nonpolar>
-30.7381

> <Gold.PLP.part.repulsive>
0.2311

> <Gold.PLP.ligand.clash>
0.0000

> <Gold.PLP.ligand.torsion>
1.0795

> <Gold.PLP.Chemscore.Hbond>
2.0000

> <Gold.PLP.Chemscore.CHOScore>
0.0000

> <Gold.PLP.Chemscore.Metal>
0.0000

> <Gold.Chemscore.Hbonds>
donor molecule, donor type, donor heavy atom, donor atom, acceptor molecule, acceptor atom, score
      P1  H  1223  2649       L1    12  1.00
      P1  H  1239  3336       L1    12  1.00

> <Gold.PLP.Chemscore.Internal.Correction>
2.0888

> <Gold.Protein.RotatedTorsions>
[ 3412  950  949  948 ] final  129.50 input   60.00 | X-H torsion
[ 3476 1244 1243 1240 ] final   67.21 input   60.00 | X-H torsion
[ 2649 1223 1224 1225 ] final  -27.23 input   60.00 | X-H torsion
[ 4380 1912 1911 1909 ] final   89.91 input   60.00 | X-H torsion
[ 3084  621  620  617 ] final -150.28 input   60.00 | X-H torsion

> <Gold.Protein.ActiveResidues>
 HIS54   GLU57   HIS58   ALA61   PHE62   ILE64   ARG65   ASP75   ILE76   ILE77  
 ASP78   ILE79   SER80   PRO81   ILE118  PRO119  ALA120  ALA121  ASN122  LYS124 
 GLN125  CYS126  GLY127  CO701   VAL4    GLU5    SER6    PHE7    GLU8    LEU9   
 HIS11   ARG20   HIS21   CYS22   GLY23   VAL24   HIS25   LYS35   ARG39   MET82  
 GLY83   CYS84   TYR89  

> <Gold.Protein.RotatedAtoms>
  -20.7561   37.3248  -17.4112 H   0  0  0  0  0  0  0  0  0  0  0  0  # atno 2649 bound_to 1223
  -20.3305   38.8456  -16.9080 H   0  0  0  0  0  0  0  0  0  0  0  0  # atno 2650 bound_to 1223
  -18.7614   27.2960  -13.9884 H   0  0  0  0  0  0  0  0  0  0  0  0  # atno 3084 bound_to 621 
  -27.6005   37.9847  -29.2535 H   0  0  0  0  0  0  0  0  0  0  0  0  # atno 3412 bound_to 950 
  -28.5356   39.3341  -29.0253 H   0  0  0  0  0  0  0  0  0  0  0  0  # atno 3413 bound_to 950 
  -28.6944   38.0341  -28.0093 H   0  0  0  0  0  0  0  0  0  0  0  0  # atno 3414 bound_to 950 
  -22.9686   31.7290  -21.1108 H   0  0  0  0  0  0  0  0  0  0  0  0  # atno 3476 bound_to 1244
  -20.2541   31.8808  -18.9743 H   0  0  0  0  0  0  0  0  0  0  0  0  # atno 4380 bound_to 1912
  -24.3031   32.6305  -20.8775 LP  0  0  0  0  0  0  0  0  0  0  0  0  # atno 4866 bound_to 1244
  -23.7264   31.6930  -19.6712 LP  0  0  0  0  0  0  0  0  0  0  0  0  # atno 4867 bound_to 1244
  -21.5235   38.0196  -16.1325 LP  0  0  0  0  0  0  0  0  0  0  0  0  # atno 4874 bound_to 1223
  -21.2353   30.7331  -19.5808 LP  0  0  0  0  0  0  0  0  0  0  0  0  # atno 4875 bound_to 1912
  -19.9473   31.2487  -20.4420 LP  0  0  0  0  0  0  0  0  0  0  0  0  # atno 4876 bound_to 1912
  -18.1296   28.4051  -12.9791 LP  0  0  0  0  0  0  0  0  0  0  0  0  # atno 4881 bound_to 621 
  -19.6915   28.5148  -13.4429 LP  0  0  0  0  0  0  0  0  0  0  0  0  # atno 4882 bound_to 621 

$$$$
Compound 159|Decoys_protonated|sdf|159|dock9
  -GOLD-   6122416203D 1   1.00000     0.00000

 27 29  0  0  0  0  0  0  0  0  1 V2000
  -22.5880   31.2392  -14.4434 O   0  0  0  0  0  0  0  0  0  0  0  0
  -21.9646   32.0838  -15.0756 C   0  0  0  0  0  0  0  0  0  0  0  0
  -21.0347   32.8827  -14.4626 O   0  0  0  0  0  0  0  0  0  0  0  0
  -22.1742   32.2924  -16.5250 C   0  0  0  0  0  0  0  0  0  0  0  0
  -20.3112   33.8598  -15.1853 C   0  0  0  0  0  0  0  0  0  0  0  0
  -23.1274   31.4879  -17.2016 C   0  0  0  0  0  0  0  0  0  0  0  0
  -21.4695   33.2291  -17.1777 C   0  0  0  0  0  0  0  0  0  0  0  0
  -20.4984   34.0506  -16.4943 C   0  0  0  0  0  0  0  0  0  0  0  0
  -19.3442   34.6544  -14.4258 C   0  0  0  0  0  0  0  0  0  0  0  0
  -23.9071   30.8671  -17.7961 N   0  0  0  0  0  0  0  0  0  0  0  0
  -19.7179   35.0917  -17.2295 C   0  0  0  0  0  0  0  0  0  0  0  0
  -18.5981   35.6402  -15.0966 C   0  0  0  0  0  0  0  0  0  0  0  0
  -19.1514   34.4499  -13.0495 C   0  0  0  0  0  0  0  0  0  0  0  0
  -19.9156   35.2406  -18.4354 O   0  0  0  0  0  0  0  0  0  0  0  0
  -18.8020   35.8406  -16.4978 N   0  0  0  0  0  0  0  0  0  0  0  0
  -17.6709   36.4015  -14.3665 C   0  0  0  0  0  0  0  0  0  0  0  0
  -18.2270   35.2143  -12.3396 C   0  0  0  0  0  0  0  0  0  0  0  0
  -18.0337   36.8589  -17.2002 C   0  0  0  0  0  0  0  0  0  0  0  0
  -17.4877   36.1891  -12.9979 C   0  0  0  0  0  0  0  0  0  0  0  0
  -21.6091   33.3982  -18.2445 H   0  0  0  0  0  0  0  0  0  0  0  0
  -19.7188   33.6926  -12.5121 H   0  0  0  0  0  0  0  0  0  0  0  0
  -17.0700   37.1744  -14.8360 H   0  0  0  0  0  0  0  0  0  0  0  0
  -18.0860   35.0474  -11.2744 H   0  0  0  0  0  0  0  0  0  0  0  0
  -18.2452   37.8401  -16.7632 H   0  0  0  0  0  0  0  0  0  0  0  0
  -16.9668   36.6276  -17.1226 H   0  0  0  0  0  0  0  0  0  0  0  0
  -18.2882   36.9056  -18.2628 H   0  0  0  0  0  0  0  0  0  0  0  0
  -16.7656   36.7875  -12.4473 H   0  0  0  0  0  0  0  0  0  0  0  0
  1  2  2  0  0  0  0
  2  3  1  0  0  0  0
  2  4  1  0  0  0  0
  3  5  1  0  0  0  0
  4  6  1  0  0  0  0
  4  7  2  0  0  0  0
  5  8  2  0  0  0  0
  5  9  1  0  0  0  0
  6 10  3  0  0  0  0
  7  8  1  0  0  0  0
  7 20  1  0  0  0  0
  8 11  1  0  0  0  0
  9 12  2  0  0  0  0
  9 13  1  0  0  0  0
 11 14  2  0  0  0  0
 11 15  1  0  0  0  0
 12 16  1  0  0  0  0
 12 15  1  0  0  0  0
 13 17  2  0  0  0  0
 13 21  1  0  0  0  0
 15 18  1  0  0  0  0
 16 19  2  0  0  0  0
 16 22  1  0  0  0  0
 17 19  1  0  0  0  0
 17 23  1  0  0  0  0
 18 24  1  0  0  0  0
 18 25  1  0  0  0  0
 18 26  1  0  0  0  0
 19 27  1  0  0  0  0
M  END
>  <Column 1>
Cn1c(=O)c2cc(C#N)c(=O)oc2c2ccccc21 ZINC000000031860

>  <Total Molweight>
252.229

>  <cLogP>
0.6112

>  <cLogS>
-2.585

>  <H-Acceptors>
5

>  <H-Donors>
0

>  <Total Surface Area>
183.66

>  <MMFF94 Energy>
33.761

> <Gold.Version>
5.8.1

> <Gold.Id.Protein>
ID|2FQT|mol2

> <Gold.PLP.Fitness>
42.4891

> <Gold.PLP.PLP>
-36.4891

> <Gold.PLP.part.hbond>
-3.0000

> <Gold.PLP.part.metal>
0.0000

> <Gold.PLP.part.buried>
-4.2071

> <Gold.PLP.part.nonpolar>
-29.7046

> <Gold.PLP.part.repulsive>
0.5069

> <Gold.PLP.ligand.clash>
0.0000

> <Gold.PLP.ligand.torsion>
0.0000

> <Gold.PLP.Chemscore.Hbond>
2.0000

> <Gold.PLP.Chemscore.CHOScore>
0.0000

> <Gold.PLP.Chemscore.Metal>
0.0000

> <Gold.Chemscore.Hbonds>
donor molecule, donor type, donor heavy atom, donor atom, acceptor molecule, acceptor atom, score
      P1  H  1244  3476       L1    10  1.00
      P1  H  1239  3336       L1    14  1.00

> <Gold.PLP.Chemscore.Internal.Correction>
0.0000

> <Gold.Protein.RotatedTorsions>
[ 3412  950  949  948 ] final  119.02 input   60.00 | X-H torsion
[ 3476 1244 1243 1240 ] final -173.96 input   60.00 | X-H torsion
[ 2649 1223 1224 1225 ] final  -74.74 input   60.00 | X-H torsion
[ 4380 1912 1911 1909 ] final   18.14 input   60.00 | X-H torsion
[ 3084  621  620  617 ] final -102.71 input   60.00 | X-H torsion

> <Gold.Protein.ActiveResidues>
 HIS54   GLU57   HIS58   ALA61   PHE62   ILE64   ARG65   ASP75   ILE76   ILE77  
 ASP78   ILE79   SER80   PRO81   ILE118  PRO119  ALA120  ALA121  ASN122  LYS124 
 GLN125  CYS126  GLY127  CO701   VAL4    GLU5    SER6    PHE7    GLU8    LEU9   
 HIS11   ARG20   HIS21   CYS22   GLY23   VAL24   HIS25   LYS35   ARG39   MET82  
 GLY83   CYS84   TYR89  

> <Gold.Protein.RotatedAtoms>
  -21.3044   37.2114  -16.8811 H   0  0  0  0  0  0  0  0  0  0  0  0  # atno 2649 bound_to 1223
  -20.1769   38.2966  -17.4272 H   0  0  0  0  0  0  0  0  0  0  0  0  # atno 2650 bound_to 1223
  -19.4547   27.5939  -14.0161 H   0  0  0  0  0  0  0  0  0  0  0  0  # atno 3084 bound_to 621 
  -27.6285   37.8559  -29.1386 H   0  0  0  0  0  0  0  0  0  0  0  0  # atno 3412 bound_to 950 
  -28.4164   39.3141  -29.1516 H   0  0  0  0  0  0  0  0  0  0  0  0  # atno 3413 bound_to 950 
  -28.7856   38.1829  -27.9979 H   0  0  0  0  0  0  0  0  0  0  0  0  # atno 3414 bound_to 950 
  -23.7090   31.6865  -19.6797 H   0  0  0  0  0  0  0  0  0  0  0  0  # atno 3476 bound_to 1244
  -21.1089   31.1926  -18.9788 H   0  0  0  0  0  0  0  0  0  0  0  0  # atno 4380 bound_to 1912
  -22.9719   31.7363  -21.1296 LP  0  0  0  0  0  0  0  0  0  0  0  0  # atno 4866 bound_to 1244
  -24.3119   32.6300  -20.8604 LP  0  0  0  0  0  0  0  0  0  0  0  0  # atno 4867 bound_to 1244
  -21.1346   38.6721  -16.1432 LP  0  0  0  0  0  0  0  0  0  0  0  0  # atno 4874 bound_to 1223
  -20.5475   30.7655  -20.4452 LP  0  0  0  0  0  0  0  0  0  0  0  0  # atno 4875 bound_to 1912
  -19.7743   31.9093  -19.5731 LP  0  0  0  0  0  0  0  0  0  0  0  0  # atno 4876 bound_to 1912
  -17.9704   27.7752  -13.3742 LP  0  0  0  0  0  0  0  0  0  0  0  0  # atno 4881 bound_to 621 
  -19.1525   28.8447  -13.0199 LP  0  0  0  0  0  0  0  0  0  0  0  0  # atno 4882 bound_to 621 

$$$$
Compound 160|Decoys_protonated|sdf|160|dock5
  -GOLD-   6122416203D 1   1.00000     0.00000

 26 28  0  0  0  0  0  0  0  0  1 V2000
  -18.7396   36.7597  -17.4923 O   0  0  0  0  0  0  0  0  0  0  0  0
  -18.7001   36.3562  -16.3318 C   0  0  0  0  0  0  0  0  0  0  0  0
  -19.0410   35.0613  -15.9629 N   0  0  0  0  0  0  0  0  0  0  0  0
  -18.2024   37.2550  -15.2763 C   0  0  0  0  0  0  0  0  0  0  0  0
  -18.9529   34.6175  -14.6152 N   0  0  0  0  0  0  0  0  0  0  0  0
  -19.1257   34.0626  -17.0206 C   0  0  0  0  0  0  0  0  0  0  0  0
  -18.0362   36.7947  -13.9773 C   0  0  0  0  0  0  0  0  0  0  0  0
  -17.8459   38.5736  -15.6003 C   0  0  0  0  0  0  0  0  0  0  0  0
  -18.4476   35.4295  -13.6078 C   0  0  0  0  0  0  0  0  0  0  0  0
  -19.7354   33.4564  -14.2119 C   0  0  0  0  0  0  0  0  0  0  0  0
  -19.7362   32.7755  -16.5932 C   0  0  0  0  0  0  0  0  0  0  0  0
  -17.5185   37.6523  -12.9939 C   0  0  0  0  0  0  0  0  0  0  0  0
  -17.3306   39.4248  -14.6215 C   0  0  0  0  0  0  0  0  0  0  0  0
  -18.3851   35.0835  -12.4298 O   0  0  0  0  0  0  0  0  0  0  0  0
  -20.0240   32.5046  -15.3178 C   0  0  0  0  0  0  0  0  0  0  0  0
  -17.1654   38.9634  -13.3177 C   0  0  0  0  0  0  0  0  0  0  0  0
  -19.7152   34.4813  -17.8447 H   0  0  0  0  0  0  0  0  0  0  0  0
  -18.1122   33.8897  -17.4012 H   0  0  0  0  0  0  0  0  0  0  0  0
  -17.9636   38.9394  -16.6191 H   0  0  0  0  0  0  0  0  0  0  0  0
  -20.6726   33.8190  -13.7738 H   0  0  0  0  0  0  0  0  0  0  0  0
  -19.1892   32.9295  -13.4207 H   0  0  0  0  0  0  0  0  0  0  0  0
  -19.9537   32.0458  -17.3673 H   0  0  0  0  0  0  0  0  0  0  0  0
  -17.3944   37.3024  -11.9704 H   0  0  0  0  0  0  0  0  0  0  0  0
  -17.0560   40.4454  -14.8785 H   0  0  0  0  0  0  0  0  0  0  0  0
  -20.4804   31.5559  -15.0523 H   0  0  0  0  0  0  0  0  0  0  0  0
  -16.7649   39.6235  -12.5517 H   0  0  0  0  0  0  0  0  0  0  0  0
  1  2  2  0  0  0  0
  2  3  1  0  0  0  0
  2  4  1  0  0  0  0
  3  5  1  0  0  0  0
  3  6  1  0  0  0  0
  4  7  2  0  0  0  0
  4  8  1  0  0  0  0
  5  9  1  0  0  0  0
  5 10  1  0  0  0  0
  6 11  1  0  0  0  0
  6 17  1  0  0  0  0
  6 18  1  0  0  0  0
  7 12  1  0  0  0  0
  7  9  1  0  0  0  0
  8 13  2  0  0  0  0
  8 19  1  0  0  0  0
  9 14  2  0  0  0  0
 10 15  1  0  0  0  0
 10 20  1  0  0  0  0
 10 21  1  0  0  0  0
 11 15  2  0  0  0  0
 11 22  1  0  0  0  0
 12 16  2  0  0  0  0
 12 23  1  0  0  0  0
 13 16  1  0  0  0  0
 13 24  1  0  0  0  0
 15 25  1  0  0  0  0
 16 26  1  0  0  0  0
M  END
>  <Column 1>
O=c1c2ccccc2c(=O)n2n1CC=CC2 ZINC000000031955

>  <Total Molweight>
214.223

>  <cLogP>
-0.0958

>  <cLogS>
-1.672

>  <H-Acceptors>
4

>  <H-Donors>
0

>  <Total Surface Area>
156.38

>  <MMFF94 Energy>
66.516

> <Gold.Version>
5.8.1

> <Gold.Id.Protein>
ID|2FQT|mol2

> <Gold.PLP.Fitness>
40.5709

> <Gold.PLP.PLP>
-34.8612

> <Gold.PLP.part.hbond>
-2.0000

> <Gold.PLP.part.metal>
0.0000

> <Gold.PLP.part.buried>
-4.6061

> <Gold.PLP.part.nonpolar>
-27.6749

> <Gold.PLP.part.repulsive>
0.0742

> <Gold.PLP.ligand.clash>
0.0000

> <Gold.PLP.ligand.torsion>
0.0000

> <Gold.PLP.Chemscore.Hbond>
1.9033

> <Gold.PLP.Chemscore.CHOScore>
0.0000

> <Gold.PLP.Chemscore.Metal>
0.0000

> <Gold.Chemscore.Hbonds>
donor molecule, donor type, donor heavy atom, donor atom, acceptor molecule, acceptor atom, score
      P1  H  1223  2649       L1     1  0.91
      P1  H  1230  2756       L1     1  0.99

> <Gold.PLP.Chemscore.Internal.Correction>
0.0000

> <Gold.Protein.RotatedTorsions>
[ 3412  950  949  948 ] final  -32.56 input   60.00 | X-H torsion
[ 3476 1244 1243 1240 ] final -116.76 input   60.00 | X-H torsion
[ 2649 1223 1224 1225 ] final   10.98 input   60.00 | X-H torsion
[ 4380 1912 1911 1909 ] final  -93.04 input   60.00 | X-H torsion
[ 3084  621  620  617 ] final  -67.16 input   60.00 | X-H torsion

> <Gold.Protein.ActiveResidues>
 HIS54   GLU57   HIS58   ALA61   PHE62   ILE64   ARG65   ASP75   ILE76   ILE77  
 ASP78   ILE79   SER80   PRO81   ILE118  PRO119  ALA120  ALA121  ASN122  LYS124 
 GLN125  CYS126  GLY127  CO701   VAL4    GLU5    SER6    PHE7    GLU8    LEU9   
 HIS11   ARG20   HIS21   CYS22   GLY23   VAL24   HIS25   LYS35   ARG39   MET82  
 GLY83   CYS84   TYR89  

> <Gold.Protein.RotatedAtoms>
  -20.3527   37.7787  -17.5647 H   0  0  0  0  0  0  0  0  0  0  0  0  # atno 2649 bound_to 1223
  -20.7228   38.9250  -16.4262 H   0  0  0  0  0  0  0  0  0  0  0  0  # atno 2650 bound_to 1223
  -19.7381   28.0390  -13.7962 H   0  0  0  0  0  0  0  0  0  0  0  0  # atno 3084 bound_to 621 
  -28.9485   38.6634  -28.1150 H   0  0  0  0  0  0  0  0  0  0  0  0  # atno 3412 bound_to 950 
  -27.8362   37.6019  -28.7342 H   0  0  0  0  0  0  0  0  0  0  0  0  # atno 3413 bound_to 950 
  -28.0459   39.0874  -29.4389 H   0  0  0  0  0  0  0  0  0  0  0  0  # atno 3414 bound_to 950 
  -24.3338   32.2690  -19.9506 H   0  0  0  0  0  0  0  0  0  0  0  0  # atno 3476 bound_to 1244
  -20.6626   30.7108  -20.3770 H   0  0  0  0  0  0  0  0  0  0  0  0  # atno 4380 bound_to 1912
  -22.9976   31.4047  -20.2905 LP  0  0  0  0  0  0  0  0  0  0  0  0  # atno 4866 bound_to 1244
  -23.6569   32.3749  -21.4266 LP  0  0  0  0  0  0  0  0  0  0  0  0  # atno 4867 bound_to 1244
  -21.5344   37.4942  -16.4559 LP  0  0  0  0  0  0  0  0  0  0  0  0  # atno 4874 bound_to 1223
  -19.7324   31.8641  -19.7042 LP  0  0  0  0  0  0  0  0  0  0  0  0  # atno 4875 bound_to 1912
  -21.0388   31.2960  -18.9060 LP  0  0  0  0  0  0  0  0  0  0  0  0  # atno 4876 bound_to 1912
  -18.2390   27.4097  -13.7287 LP  0  0  0  0  0  0  0  0  0  0  0  0  # atno 4881 bound_to 621 
  -18.5986   28.7619  -12.8868 LP  0  0  0  0  0  0  0  0  0  0  0  0  # atno 4882 bound_to 621 

$$$$
Compound 161|Decoys_protonated|sdf|161|dock1
  -GOLD-   6122416203D 1   1.00000     0.00000

 15 15  0  0  0  0  0  0  0  0  1 V2000
  -21.9813   34.3291  -16.6640 Br  0  0  0  0  0  0  0  0  0  0  0  0
  -21.7191   32.5922  -16.0257 C   0  0  0  0  0  0  0  0  0  0  0  0
  -20.3290   32.2269  -15.5963 C   0  0  0  0  0  0  0  0  0  0  0  0
  -22.6785   31.6506  -15.9235 C   0  0  0  0  0  0  0  0  0  0  0  0
  -19.3847   33.0103  -15.6489 O   0  0  0  0  0  0  0  0  0  0  0  0
  -20.1503   30.9527  -15.1311 N   0  0  0  0  0  0  0  0  0  0  0  0
  -22.3677   30.3983  -15.4365 N   0  0  0  0  0  0  0  0  0  0  0  0
  -24.1248   31.8248  -16.3016 C   0  0  0  0  0  0  0  0  0  0  0  0
  -21.1244   30.0081  -15.0311 C   0  0  0  0  0  0  0  0  0  0  0  0
  -20.9067   28.8796  -14.6059 O   0  0  0  0  0  0  0  0  0  0  0  0
  -19.2213   30.6930  -14.8388 H   0  0  0  0  0  0  0  0  0  0  0  0
  -23.0864   29.6861  -15.3576 H   0  0  0  0  0  0  0  0  0  0  0  0
  -24.7646   31.6511  -15.4291 H   0  0  0  0  0  0  0  0  0  0  0  0
  -24.4001   31.1008  -17.0767 H   0  0  0  0  0  0  0  0  0  0  0  0
  -24.3651   32.8183  -16.6866 H   0  0  0  0  0  0  0  0  0  0  0  0
  1  2  1  0  0  0  0
  2  3  1  0  0  0  0
  2  4  2  0  0  0  0
  3  5  2  0  0  0  0
  3  6  1  0  0  0  0
  4  7  1  0  0  0  0
  4  8  1  0  0  0  0
  6  9  1  0  0  0  0
  6 11  1  0  0  0  0
  7  9  1  0  0  0  0
  7 12  1  0  0  0  0
  8 13  1  0  0  0  0
  8 14  1  0  0  0  0
  8 15  1  0  0  0  0
  9 10  2  0  0  0  0
M  END
>  <Column 1>
Cc1[nH]c(=O)[nH]c(=O)c1Br ZINC000000032330

>  <Total Molweight>
205.011

>  <cLogP>
0.1782

>  <cLogS>
-2.341

>  <H-Acceptors>
4

>  <H-Donors>
2

>  <Total Surface Area>
112.23

>  <MMFF94 Energy>
-68.33

> <Gold.Version>
5.8.1

> <Gold.Id.Protein>
ID|2FQT|mol2

> <Gold.PLP.Fitness>
30.5689

> <Gold.PLP.PLP>
-22.1951

> <Gold.PLP.part.hbond>
-3.0000

> <Gold.PLP.part.metal>
0.0000

> <Gold.PLP.part.buried>
-4.9955

> <Gold.PLP.part.nonpolar>
-16.3593

> <Gold.PLP.part.repulsive>
0.4366

> <Gold.PLP.ligand.clash>
0.0000

> <Gold.PLP.ligand.torsion>
0.0000

> <Gold.PLP.Chemscore.Hbond>
2.7913

> <Gold.PLP.Chemscore.CHOScore>
0.0000

> <Gold.PLP.Chemscore.Metal>
0.0000

> <Gold.Chemscore.Hbonds>
donor molecule, donor type, donor heavy atom, donor atom, acceptor molecule, acceptor atom, score
      L1  H     6    11       P1   606  0.99
      L1  H     7    12       P1   427  0.80
      P1  H   621  3084       L1    10  1.00

> <Gold.PLP.Chemscore.Internal.Correction>
0.0000

> <Gold.Protein.RotatedTorsions>
[ 3412  950  949  948 ] final    9.42 input   60.00 | X-H torsion
[ 3476 1244 1243 1240 ] final    7.11 input   60.00 | X-H torsion
[ 2649 1223 1224 1225 ] final  -51.47 input   60.00 | X-H torsion
[ 4380 1912 1911 1909 ] final  161.40 input   60.00 | X-H torsion
[ 3084  621  620  617 ] final  -50.48 input   60.00 | X-H torsion

> <Gold.Protein.ActiveResidues>
 HIS54   GLU57   HIS58   ALA61   PHE62   ILE64   ARG65   ASP75   ILE76   ILE77  
 ASP78   ILE79   SER80   PRO81   ILE118  PRO119  ALA120  ALA121  ASN122  LYS124 
 GLN125  CYS126  GLY127  CO701   VAL4    GLU5    SER6    PHE7    GLU8    LEU9   
 HIS11   ARG20   HIS21   CYS22   GLY23   VAL24   HIS25   LYS35   ARG39   MET82  
 GLY83   CYS84   TYR89  

> <Gold.Protein.RotatedAtoms>
  -21.0506   37.1934  -17.1715 H   0  0  0  0  0  0  0  0  0  0  0  0  # atno 2649 bound_to 1223
  -20.1948   38.6124  -17.2059 H   0  0  0  0  0  0  0  0  0  0  0  0  # atno 2650 bound_to 1223
  -19.7604   28.2628  -13.6440 H   0  0  0  0  0  0  0  0  0  0  0  0  # atno 3084 bound_to 621 
  -28.6951   38.0353  -28.0091 H   0  0  0  0  0  0  0  0  0  0  0  0  # atno 3412 bound_to 950 
  -27.6007   37.9835  -29.2527 H   0  0  0  0  0  0  0  0  0  0  0  0  # atno 3413 bound_to 950 
  -28.5347   39.3340  -29.0263 H   0  0  0  0  0  0  0  0  0  0  0  0  # atno 3414 bound_to 950 
  -23.6038   32.3399  -21.4310 H   0  0  0  0  0  0  0  0  0  0  0  0  # atno 3476 bound_to 1244
  -19.7063   31.7563  -19.9129 H   0  0  0  0  0  0  0  0  0  0  0  0  # atno 4380 bound_to 1912
  -24.3640   32.3062  -19.9927 LP  0  0  0  0  0  0  0  0  0  0  0  0  # atno 4866 bound_to 1244
  -23.0258   31.4020  -20.2335 LP  0  0  0  0  0  0  0  0  0  0  0  0  # atno 4867 bound_to 1244
  -21.3669   38.3787  -16.0752 LP  0  0  0  0  0  0  0  0  0  0  0  0  # atno 4874 bound_to 1223
  -20.8868   31.4622  -18.8322 LP  0  0  0  0  0  0  0  0  0  0  0  0  # atno 4875 bound_to 1912
  -20.8475   30.6450  -20.2454 LP  0  0  0  0  0  0  0  0  0  0  0  0  # atno 4876 bound_to 1912
  -18.4548   27.3179  -13.8693 LP  0  0  0  0  0  0  0  0  0  0  0  0  # atno 4881 bound_to 621 
  -18.3603   28.6284  -12.8996 LP  0  0  0  0  0  0  0  0  0  0  0  0  # atno 4882 bound_to 621 

$$$$
Compound 162|Decoys_protonated|sdf|162|dock1
  -GOLD-   6122416203D 1   1.00000     0.00000

 23 24  0  0  0  0  0  0  0  0  1 V2000
  -19.9243   30.4383  -14.3763 O   0  0  0  0  0  0  0  0  0  0  0  0
  -20.6650   31.1667  -15.2656 C   0  0  0  0  0  0  0  0  0  0  0  0
  -20.1516   32.3934  -15.6820 C   0  0  0  0  0  0  0  0  0  0  0  0
  -21.8876   30.7154  -15.7472 C   0  0  0  0  0  0  0  0  0  0  0  0
  -18.9496   32.8273  -15.2027 O   0  0  0  0  0  0  0  0  0  0  0  0
  -20.8451   33.1895  -16.5827 C   0  0  0  0  0  0  0  0  0  0  0  0
  -22.5921   31.5149  -16.6567 C   0  0  0  0  0  0  0  0  0  0  0  0
  -22.0750   32.7490  -17.0754 C   0  0  0  0  0  0  0  0  0  0  0  0
  -23.8984   31.0732  -17.1954 C   0  0  0  0  0  0  0  0  0  0  0  0
  -23.9700   30.3705  -18.2780 N   0  0  0  0  0  0  0  0  0  0  0  0
  -25.2111   29.9997  -18.7140 N   0  0  0  0  0  0  0  0  0  0  0  0
  -26.0564   29.1932  -17.9955 C   0  0  0  0  0  0  0  0  0  0  0  0
  -25.9167   30.2776  -19.8575 C   0  0  0  0  0  0  0  0  0  0  0  0
  -27.1796   28.9976  -18.6468 N   0  0  0  0  0  0  0  0  0  0  0  0
  -27.0912   29.6867  -19.8304 N   0  0  0  0  0  0  0  0  0  0  0  0
  -19.0284   30.8172  -14.3391 H   0  0  0  0  0  0  0  0  0  0  0  0
  -22.2959   29.7614  -15.4288 H   0  0  0  0  0  0  0  0  0  0  0  0
  -18.3575   32.0519  -15.2773 H   0  0  0  0  0  0  0  0  0  0  0  0
  -20.4300   34.1428  -16.8965 H   0  0  0  0  0  0  0  0  0  0  0  0
  -22.6150   33.3756  -17.7805 H   0  0  0  0  0  0  0  0  0  0  0  0
  -24.7781   31.3877  -16.6083 H   0  0  0  0  0  0  0  0  0  0  0  0
  -25.7936   28.7942  -17.0282 H   0  0  0  0  0  0  0  0  0  0  0  0
  -25.5555   30.8947  -20.6637 H   0  0  0  0  0  0  0  0  0  0  0  0
  1  2  1  0  0  0  0
  1 16  1  0  0  0  0
  2  3  2  0  0  0  0
  2  4  1  0  0  0  0
  3  5  1  0  0  0  0
  3  6  1  0  0  0  0
  4  7  2  0  0  0  0
  4 17  1  0  0  0  0
  5 18  1  0  0  0  0
  6  8  2  0  0  0  0
  6 19  1  0  0  0  0
  7  9  1  0  0  0  0
  7  8  1  0  0  0  0
  8 20  1  0  0  0  0
  9 10  2  0  0  0  0
  9 21  1  0  0  0  0
 10 11  1  0  0  0  0
 11 12  1  0  0  0  0
 11 13  1  0  0  0  0
 12 14  2  0  0  0  0
 12 22  1  0  0  0  0
 13 15  2  0  0  0  0
 13 23  1  0  0  0  0
 14 15  1  0  0  0  0
M  END
>  <Column 1>
Oc1ccc(/C=N/n2cnnc2)cc1O ZINC000000032460

>  <Total Molweight>
204.189

>  <cLogP>
0.5369

>  <cLogS>
-3.718

>  <H-Acceptors>
6

>  <H-Donors>
2

>  <Total Surface Area>
157.2

>  <MMFF94 Energy>
29.022

> <Gold.Version>
5.8.1

> <Gold.Id.Protein>
ID|2FQT|mol2

> <Gold.PLP.Fitness>
64.3691

> <Gold.PLP.PLP>
-37.3825

> <Gold.PLP.part.hbond>
-6.8914

> <Gold.PLP.part.metal>
-1.5368

> <Gold.PLP.part.buried>
-0.9422

> <Gold.PLP.part.nonpolar>
-28.7364

> <Gold.PLP.part.repulsive>
0.1961

> <Gold.PLP.ligand.clash>
0.0000

> <Gold.PLP.ligand.torsion>
1.3401

> <Gold.PLP.Chemscore.Hbond>
4.7722

> <Gold.PLP.Chemscore.CHOScore>
1.1167

> <Gold.PLP.Chemscore.Metal>
2.0000

> <Gold.Chemscore.Hbonds>
donor molecule, donor type, donor heavy atom, donor atom, acceptor molecule, acceptor atom, score
      L1  H     1    16       P1   606  1.00
      L1  H     5    18       P1   606  1.00
      P1  H   966  3428       L1    15  1.00
      P1  H  1244  3476       L1    10  1.00
      P1  H   621  3084       L1     1  0.77
      L1  C    12    22       P1   426  1.00
      L1  C    13    23       P1  1290  0.12
      P1  M  1222  1222       L1    14  1.00
      P1  M  1222  1222       L1    15  1.00

> <Gold.PLP.Chemscore.Internal.Correction>
0.0000

> <Gold.Protein.RotatedTorsions>
[ 3412  950  949  948 ] final  -39.98 input   60.00 | X-H torsion
[ 3476 1244 1243 1240 ] final  159.69 input   60.00 | X-H torsion
[ 2649 1223 1224 1225 ] final   62.85 input   60.00 | X-H torsion
[ 4380 1912 1911 1909 ] final -171.93 input   60.00 | X-H torsion
[ 3084  621  620  617 ] final  -13.58 input   60.00 | X-H torsion

> <Gold.Protein.ActiveResidues>
 HIS54   GLU57   HIS58   ALA61   PHE62   ILE64   ARG65   ASP75   ILE76   ILE77  
 ASP78   ILE79   SER80   PRO81   ILE118  PRO119  ALA120  ALA121  ASN122  LYS124 
 GLN125  CYS126  GLY127  CO701   VAL4    GLU5    SER6    PHE7    GLU8    LEU9   
 HIS11   ARG20   HIS21   CYS22   GLY23   VAL24   HIS25   LYS35   ARG39   MET82  
 GLY83   CYS84   TYR89  

> <Gold.Protein.RotatedAtoms>
  -20.1799   38.5418  -17.2674 H   0  0  0  0  0  0  0  0  0  0  0  0  # atno 2649 bound_to 1223
  -21.3196   38.4610  -16.0667 H   0  0  0  0  0  0  0  0  0  0  0  0  # atno 2650 bound_to 1223
  -19.5478   28.6751  -13.2754 H   0  0  0  0  0  0  0  0  0  0  0  0  # atno 3084 bound_to 621 
  -28.9585   38.7724  -28.1730 H   0  0  0  0  0  0  0  0  0  0  0  0  # atno 3412 bound_to 950 
  -27.9071   37.5774  -28.6357 H   0  0  0  0  0  0  0  0  0  0  0  0  # atno 3413 bound_to 950 
  -27.9649   39.0030  -29.4794 H   0  0  0  0  0  0  0  0  0  0  0  0  # atno 3414 bound_to 950 
  -23.3632   31.4935  -19.8390 H   0  0  0  0  0  0  0  0  0  0  0  0  # atno 3476 bound_to 1244
  -19.7782   31.4962  -20.2500 H   0  0  0  0  0  0  0  0  0  0  0  0  # atno 4380 bound_to 1912
  -23.1981   32.0083  -21.3738 LP  0  0  0  0  0  0  0  0  0  0  0  0  # atno 4866 bound_to 1244
  -24.4340   32.5524  -20.4556 LP  0  0  0  0  0  0  0  0  0  0  0  0  # atno 4867 bound_to 1244
  -21.1167   37.1994  -17.1030 LP  0  0  0  0  0  0  0  0  0  0  0  0  # atno 4874 bound_to 1223
  -20.5466   31.7331  -18.8353 LP  0  0  0  0  0  0  0  0  0  0  0  0  # atno 4875 bound_to 1912
  -21.1152   30.6360  -19.9028 LP  0  0  0  0  0  0  0  0  0  0  0  0  # atno 4876 bound_to 1912
  -19.0233   27.3428  -14.0488 LP  0  0  0  0  0  0  0  0  0  0  0  0  # atno 4881 bound_to 621 
  -18.0060   28.1882  -13.0912 LP  0  0  0  0  0  0  0  0  0  0  0  0  # atno 4882 bound_to 621 

$$$$
Compound 163|Decoys_protonated|sdf|163|dock1
  -GOLD-   6122416203D 1   1.00000     0.00000

 23 25  0  0  0  0  0  0  0  0  1 V2000
  -20.2271   32.6692  -16.3215 N   0  0  0  0  0  0  0  0  0  0  0  0
  -20.0257   33.7950  -17.0387 N   0  0  0  0  0  0  0  0  0  0  0  0
  -20.0122   32.7685  -15.0310 C   0  0  0  0  0  0  0  0  0  0  0  0
  -20.2023   33.8567  -18.3665 N   0  0  0  0  0  0  0  0  0  0  0  0
  -19.6255   35.0227  -16.5828 C   0  0  0  0  0  0  0  0  0  0  0  0
  -20.2051   31.6440  -14.2564 N   0  0  0  0  0  0  0  0  0  0  0  0
  -19.5635   34.0598  -14.3601 C   0  0  0  0  0  0  0  0  0  0  0  0
  -19.9107   35.1093  -18.7023 N   0  0  0  0  0  0  0  0  0  0  0  0
  -19.5483   35.8521  -17.5998 N   0  0  0  0  0  0  0  0  0  0  0  0
  -19.3758   35.1884  -15.1768 C   0  0  0  0  0  0  0  0  0  0  0  0
  -20.6299   30.3713  -14.7973 C   0  0  0  0  0  0  0  0  0  0  0  0
  -19.3335   34.1685  -12.9840 C   0  0  0  0  0  0  0  0  0  0  0  0
  -18.9649   36.4064  -14.6292 C   0  0  0  0  0  0  0  0  0  0  0  0
  -18.9221   35.3896  -12.4386 C   0  0  0  0  0  0  0  0  0  0  0  0
  -18.7385   36.5041  -13.2576 C   0  0  0  0  0  0  0  0  0  0  0  0
  -20.0559   31.6583  -13.2581 H   0  0  0  0  0  0  0  0  0  0  0  0
  -19.9040   29.9959  -15.5251 H   0  0  0  0  0  0  0  0  0  0  0  0
  -20.7126   29.6357  -13.9914 H   0  0  0  0  0  0  0  0  0  0  0  0
  -21.6098   30.4597  -15.2766 H   0  0  0  0  0  0  0  0  0  0  0  0
  -19.4632   33.3302  -12.3098 H   0  0  0  0  0  0  0  0  0  0  0  0
  -18.8209   37.2774  -15.2659 H   0  0  0  0  0  0  0  0  0  0  0  0
  -18.7437   35.4727  -11.3683 H   0  0  0  0  0  0  0  0  0  0  0  0
  -18.4185   37.4503  -12.8265 H   0  0  0  0  0  0  0  0  0  0  0  0
  1  2  1  0  0  0  0
  1  3  2  0  0  0  0
  2  4  1  0  0  0  0
  2  5  1  0  0  0  0
  3  6  1  0  0  0  0
  3  7  1  0  0  0  0
  4  8  2  0  0  0  0
  5  9  2  0  0  0  0
  5 10  1  0  0  0  0
  6 11  1  0  0  0  0
  6 16  1  0  0  0  0
  7 12  1  0  0  0  0
  7 10  2  0  0  0  0
  8  9  1  0  0  0  0
 10 13  1  0  0  0  0
 11 17  1  0  0  0  0
 11 18  1  0  0  0  0
 11 19  1  0  0  0  0
 12 14  2  0  0  0  0
 12 20  1  0  0  0  0
 13 15  2  0  0  0  0
 13 21  1  0  0  0  0
 14 15  1  0  0  0  0
 14 22  1  0  0  0  0
 15 23  1  0  0  0  0
M  END
>  <Column 1>
CNc1nn2nnnc2c2ccccc12 ZINC000000032545

>  <Total Molweight>
200.205

>  <cLogP>
0.7746

>  <cLogS>
-4.967

>  <H-Acceptors>
6

>  <H-Donors>
1

>  <Total Surface Area>
151.87

>  <MMFF94 Energy>
19.402

> <Gold.Version>
5.8.1

> <Gold.Id.Protein>
ID|2FQT|mol2

> <Gold.PLP.Fitness>
40.5220

> <Gold.PLP.PLP>
-29.3933

> <Gold.PLP.part.hbond>
-7.5493

> <Gold.PLP.part.metal>
0.0000

> <Gold.PLP.part.buried>
0.9235

> <Gold.PLP.part.nonpolar>
-23.1383

> <Gold.PLP.part.repulsive>
0.3265

> <Gold.PLP.ligand.clash>
0.0000

> <Gold.PLP.ligand.torsion>
0.0000

> <Gold.PLP.Chemscore.Hbond>
3.7096

> <Gold.PLP.Chemscore.CHOScore>
0.0000

> <Gold.PLP.Chemscore.Metal>
0.0000

> <Gold.Chemscore.Hbonds>
donor molecule, donor type, donor heavy atom, donor atom, acceptor molecule, acceptor atom, score
      L1  H     6    16       P1   611  0.70
      P1  H  1223  2650       L1     9  1.00
      P1  H  1912  4380       L1     4  1.00
      P1  H  1230  2756       L1     9  0.06
      P1  H  1239  3336       L1     8  0.94

> <Gold.PLP.Chemscore.Internal.Correction>
0.0000

> <Gold.Protein.RotatedTorsions>
[ 3412  950  949  948 ] final -147.50 input   60.00 | X-H torsion
[ 3476 1244 1243 1240 ] final -118.83 input   60.00 | X-H torsion
[ 2649 1223 1224 1225 ] final -148.58 input   60.00 | X-H torsion
[ 4380 1912 1911 1909 ] final  105.17 input   60.00 | X-H torsion
[ 3084  621  620  617 ] final  -35.89 input   60.00 | X-H torsion

> <Gold.Protein.ActiveResidues>
 HIS54   GLU57   HIS58   ALA61   PHE62   ILE64   ARG65   ASP75   ILE76   ILE77  
 ASP78   ILE79   SER80   PRO81   ILE118  PRO119  ALA120  ALA121  ASN122  LYS124 
 GLN125  CYS126  GLY127  CO701   VAL4    GLU5    SER6    PHE7    GLU8    LEU9   
 HIS11   ARG20   HIS21   CYS22   GLY23   VAL24   HIS25   LYS35   ARG39   MET82  
 GLY83   CYS84   TYR89  

> <Gold.Protein.RotatedAtoms>
  -21.5238   38.0376  -16.1125 H   0  0  0  0  0  0  0  0  0  0  0  0  # atno 2649 bound_to 1223
  -20.7725   37.3137  -17.4003 H   0  0  0  0  0  0  0  0  0  0  0  0  # atno 2650 bound_to 1223
  -19.7177   28.4458  -13.4983 H   0  0  0  0  0  0  0  0  0  0  0  0  # atno 3084 bound_to 621 
  -28.1034   39.1390  -29.4047 H   0  0  0  0  0  0  0  0  0  0  0  0  # atno 3412 bound_to 950 
  -28.9353   38.5870  -28.0817 H   0  0  0  0  0  0  0  0  0  0  0  0  # atno 3413 bound_to 950 
  -27.7919   37.6269  -28.8017 H   0  0  0  0  0  0  0  0  0  0  0  0  # atno 3414 bound_to 950 
  -24.3197   32.2488  -19.9275 H   0  0  0  0  0  0  0  0  0  0  0  0  # atno 3476 bound_to 1244
  -20.0675   31.9377  -19.1287 H   0  0  0  0  0  0  0  0  0  0  0  0  # atno 4380 bound_to 1912
  -22.9838   31.4073  -20.3215 LP  0  0  0  0  0  0  0  0  0  0  0  0  # atno 4866 bound_to 1244
  -23.6849   32.3927  -21.4189 LP  0  0  0  0  0  0  0  0  0  0  0  0  # atno 4867 bound_to 1244
  -20.3316   38.8265  -16.9269 LP  0  0  0  0  0  0  0  0  0  0  0  0  # atno 4874 bound_to 1223
  -21.2553   30.8498  -19.3600 LP  0  0  0  0  0  0  0  0  0  0  0  0  # atno 4875 bound_to 1912
  -20.1153   31.0747  -20.5074 LP  0  0  0  0  0  0  0  0  0  0  0  0  # atno 4876 bound_to 1912
  -18.6724   27.2894  -13.9652 LP  0  0  0  0  0  0  0  0  0  0  0  0  # atno 4881 bound_to 621 
  -18.1857   28.4726  -12.9504 LP  0  0  0  0  0  0  0  0  0  0  0  0  # atno 4882 bound_to 621 

$$$$
Compound 164|Decoys_protonated|sdf|164|dock2
  -GOLD-   6122416203D 1   1.00000     0.00000

 44 45  0  0  0  0  0  0  0  0  1 V2000
  -24.8408   33.1254  -17.1717 O   0  0  0  0  0  0  0  0  0  0  0  0
  -24.9030   31.9417  -17.5024 C   0  0  0  0  0  0  0  0  0  0  0  0
  -24.0914   30.9378  -16.9761 N   0  0  0  0  0  0  0  0  0  0  0  0
  -25.8056   31.5551  -18.4481 N   0  0  0  0  0  0  0  0  0  0  0  0
  -24.1469   29.6205  -17.4187 C   0  0  0  0  0  0  0  0  0  0  0  0
  -23.1300   31.3529  -15.9500 C   0  0  0  0  0  0  0  0  0  0  0  0
  -25.9531   30.2939  -18.9250 C   0  0  0  0  0  0  0  0  0  0  0  0
  -23.3172   28.6453  -16.9361 N   0  0  0  0  0  0  0  0  0  0  0  0
  -25.0453   29.2911  -18.3602 C   0  0  0  0  0  0  0  0  0  0  0  0
  -21.6832   31.1037  -16.3912 C   0  0  0  0  0  0  0  0  0  0  0  0
  -26.7795   29.9925  -19.7778 O   0  0  0  0  0  0  0  0  0  0  0  0
  -20.7407   32.1429  -15.8354 C   0  0  0  0  0  0  0  0  0  0  0  0
  -19.8831   32.8482  -16.6938 C   0  0  0  0  0  0  0  0  0  0  0  0
  -20.7240   32.4323  -14.4684 C   0  0  0  0  0  0  0  0  0  0  0  0
  -19.0171   33.8297  -16.1962 C   0  0  0  0  0  0  0  0  0  0  0  0
  -19.8619   33.4085  -13.9619 C   0  0  0  0  0  0  0  0  0  0  0  0
  -18.1508   34.5644  -16.9680 O   0  0  0  0  0  0  0  0  0  0  0  0
  -19.0059   34.1118  -14.8157 C   0  0  0  0  0  0  0  0  0  0  0  0
  -18.3149   34.5179  -18.3824 C   0  0  0  0  0  0  0  0  0  0  0  0
  -18.1302   35.0872  -14.4069 O   0  0  0  0  0  0  0  0  0  0  0  0
  -16.9336   34.4969  -19.0126 C   0  0  0  0  0  0  0  0  0  0  0  0
  -18.0670   35.3866  -13.0160 C   0  0  0  0  0  0  0  0  0  0  0  0
  -19.2887   36.2147  -12.6596 C   0  0  0  0  0  0  0  0  0  0  0  0
  -26.4053   32.2709  -18.8266 H   0  0  0  0  0  0  0  0  0  0  0  0
  -23.2688   32.4223  -15.7443 H   0  0  0  0  0  0  0  0  0  0  0  0
  -23.3551   30.8538  -15.0002 H   0  0  0  0  0  0  0  0  0  0  0  0
  -22.6237   28.8463  -16.2311 H   0  0  0  0  0  0  0  0  0  0  0  0
  -23.4000   27.6921  -17.2693 H   0  0  0  0  0  0  0  0  0  0  0  0
  -25.1488   28.2883  -18.7531 H   0  0  0  0  0  0  0  0  0  0  0  0
  -21.3572   30.1038  -16.0782 H   0  0  0  0  0  0  0  0  0  0  0  0
  -21.6126   31.1042  -17.4867 H   0  0  0  0  0  0  0  0  0  0  0  0
  -19.9108   32.6111  -17.7535 H   0  0  0  0  0  0  0  0  0  0  0  0
  -21.3778   31.8986  -13.7822 H   0  0  0  0  0  0  0  0  0  0  0  0
  -19.8829   33.5970  -12.8940 H   0  0  0  0  0  0  0  0  0  0  0  0
  -18.8531   35.4062  -18.7328 H   0  0  0  0  0  0  0  0  0  0  0  0
  -18.8537   33.6092  -18.6740 H   0  0  0  0  0  0  0  0  0  0  0  0
  -17.0032   34.4611  -20.1034 H   0  0  0  0  0  0  0  0  0  0  0  0
  -16.3643   35.3865  -18.7233 H   0  0  0  0  0  0  0  0  0  0  0  0
  -16.3648   33.6278  -18.6657 H   0  0  0  0  0  0  0  0  0  0  0  0
  -17.1647   35.9669  -12.7909 H   0  0  0  0  0  0  0  0  0  0  0  0
  -18.0785   34.4624  -12.4270 H   0  0  0  0  0  0  0  0  0  0  0  0
  -19.2889   36.4723  -11.5967 H   0  0  0  0  0  0  0  0  0  0  0  0
  -19.3132   37.1384  -13.2475 H   0  0  0  0  0  0  0  0  0  0  0  0
  -20.2075   35.6654  -12.8907 H   0  0  0  0  0  0  0  0  0  0  0  0
  1  2  2  0  0  0  0
  2  3  1  0  0  0  0
  2  4  1  0  0  0  0
  3  5  1  0  0  0  0
  3  6  1  0  0  0  0
  4  7  1  0  0  0  0
  4 24  1  0  0  0  0
  5  8  1  0  0  0  0
  5  9  2  0  0  0  0
  6 10  1  0  0  0  0
  6 25  1  0  0  0  0
  6 26  1  0  0  0  0
  7 11  2  0  0  0  0
  7  9  1  0  0  0  0
  8 27  1  0  0  0  0
  8 28  1  0  0  0  0
  9 29  1  0  0  0  0
 10 12  1  0  0  0  0
 10 30  1  0  0  0  0
 10 31  1  0  0  0  0
 12 13  2  0  0  0  0
 12 14  1  0  0  0  0
 13 15  1  0  0  0  0
 13 32  1  0  0  0  0
 14 16  2  0  0  0  0
 14 33  1  0  0  0  0
 15 17  1  0  0  0  0
 15 18  2  0  0  0  0
 16 18  1  0  0  0  0
 16 34  1  0  0  0  0
 17 19  1  0  0  0  0
 18 20  1  0  0  0  0
 19 21  1  0  0  0  0
 19 35  1  0  0  0  0
 19 36  1  0  0  0  0
 20 22  1  0  0  0  0
 21 37  1  0  0  0  0
 21 38  1  0  0  0  0
 21 39  1  0  0  0  0
 22 23  1  0  0  0  0
 22 40  1  0  0  0  0
 22 41  1  0  0  0  0
 23 42  1  0  0  0  0
 23 43  1  0  0  0  0
 23 44  1  0  0  0  0
M  END
>  <Column 1>
CCOc1ccc(CCn2c(N)cc(=O)[nH]c2=O)cc1OCC ZINC000000032782

>  <Total Molweight>
319.36

>  <cLogP>
1.5248

>  <cLogS>
-4.028

>  <H-Acceptors>
7

>  <H-Donors>
2

>  <Total Surface Area>
249.81

>  <MMFF94 Energy>
-80.484

> <Gold.Version>
5.8.1

> <Gold.Id.Protein>
ID|2FQT|mol2

> <Gold.PLP.Fitness>
64.9987

> <Gold.PLP.PLP>
-55.4891

> <Gold.PLP.part.hbond>
-3.8214

> <Gold.PLP.part.metal>
-1.0000

> <Gold.PLP.part.buried>
-0.6052

> <Gold.PLP.part.nonpolar>
-52.6643

> <Gold.PLP.part.repulsive>
0.4207

> <Gold.PLP.ligand.clash>
0.0000

> <Gold.PLP.ligand.torsion>
0.7482

> <Gold.PLP.Chemscore.Hbond>
1.6478

> <Gold.PLP.Chemscore.CHOScore>
0.0000

> <Gold.PLP.Chemscore.Metal>
0.9951

> <Gold.Chemscore.Hbonds>
donor molecule, donor type, donor heavy atom, donor atom, acceptor molecule, acceptor atom, score
      P1  H   966  3428       L1    11  0.96
      P1  H  1466  3954       L1    17  0.69
      P1  M  1222  1222       L1    11  1.00

> <Gold.PLP.Chemscore.Internal.Correction>
0.0924

> <Gold.Protein.RotatedTorsions>
[ 3412  950  949  948 ] final   61.45 input   60.00 | X-H torsion
[ 3476 1244 1243 1240 ] final  158.17 input   60.00 | X-H torsion
[ 2649 1223 1224 1225 ] final  -23.05 input   60.00 | X-H torsion
[ 4380 1912 1911 1909 ] final   -9.88 input   60.00 | X-H torsion
[ 3084  621  620  617 ] final  -40.79 input   60.00 | X-H torsion

> <Gold.Protein.ActiveResidues>
 HIS54   GLU57   HIS58   ALA61   PHE62   ILE64   ARG65   ASP75   ILE76   ILE77  
 ASP78   ILE79   SER80   PRO81   ILE118  PRO119  ALA120  ALA121  ASN122  LYS124 
 GLN125  CYS126  GLY127  CO701   VAL4    GLU5    SER6    PHE7    GLU8    LEU9   
 HIS11   ARG20   HIS21   CYS22   GLY23   VAL24   HIS25   LYS35   ARG39   MET82  
 GLY83   CYS84   TYR89  

> <Gold.Protein.RotatedAtoms>
  -20.7059   37.3616  -17.4428 H   0  0  0  0  0  0  0  0  0  0  0  0  # atno 2649 bound_to 1223
  -20.3645   38.8726  -16.8534 H   0  0  0  0  0  0  0  0  0  0  0  0  # atno 2650 bound_to 1223
  -19.7385   28.3864  -13.5480 H   0  0  0  0  0  0  0  0  0  0  0  0  # atno 3084 bound_to 621 
  -28.1091   37.5806  -28.4020 H   0  0  0  0  0  0  0  0  0  0  0  0  # atno 3412 bound_to 950 
  -27.7878   38.7545  -29.5272 H   0  0  0  0  0  0  0  0  0  0  0  0  # atno 3413 bound_to 950 
  -28.9336   39.0178  -28.3589 H   0  0  0  0  0  0  0  0  0  0  0  0  # atno 3414 bound_to 950 
  -23.3445   31.4854  -19.8532 H   0  0  0  0  0  0  0  0  0  0  0  0  # atno 3476 bound_to 1244
  -21.2432   30.8957  -19.2940 H   0  0  0  0  0  0  0  0  0  0  0  0  # atno 4380 bound_to 1912
  -23.2147   32.0246  -21.3831 LP  0  0  0  0  0  0  0  0  0  0  0  0  # atno 4866 bound_to 1244
  -24.4362   32.5442  -20.4321 LP  0  0  0  0  0  0  0  0  0  0  0  0  # atno 4867 bound_to 1244
  -21.5394   37.9566  -16.1552 LP  0  0  0  0  0  0  0  0  0  0  0  0  # atno 4874 bound_to 1223
  -20.1758   31.0211  -20.5159 LP  0  0  0  0  0  0  0  0  0  0  0  0  # atno 4875 bound_to 1912
  -20.0108   31.9528  -19.1850 LP  0  0  0  0  0  0  0  0  0  0  0  0  # atno 4876 bound_to 1912
  -18.5972   27.2934  -13.9362 LP  0  0  0  0  0  0  0  0  0  0  0  0  # atno 4881 bound_to 621 
  -18.2401   28.5284  -12.9293 LP  0  0  0  0  0  0  0  0  0  0  0  0  # atno 4882 bound_to 621 

$$$$
Compound 165|Decoys_protonated|sdf|165|dock4
  -GOLD-   6122416213D 1   1.00000     0.00000

 43 46  0  0  0  0  0  0  0  0  1 V2000
  -16.9960   35.4070  -17.4342 O   0  0  0  0  0  0  0  0  0  0  0  0
  -17.9735   34.7571  -17.7691 C   0  0  0  0  0  0  0  0  0  0  0  0
  -19.0286   34.2652  -17.0149 N   0  0  0  0  0  0  0  0  0  0  0  0
  -18.2368   34.3379  -19.0752 N   0  0  0  0  0  0  0  0  0  0  0  0
  -19.3765   34.2688  -15.6850 C   0  0  0  0  0  0  0  0  0  0  0  0
  -19.7866   33.5754  -17.8808 C   0  0  0  0  0  0  0  0  0  0  0  0
  -19.3808   33.5886  -19.1187 N   0  0  0  0  0  0  0  0  0  0  0  0
  -20.4121   33.5812  -15.3078 N   0  0  0  0  0  0  0  0  0  0  0  0
  -18.6405   34.9688  -14.7455 N   0  0  0  0  0  0  0  0  0  0  0  0
  -20.8894   32.9051  -17.4881 N   0  0  0  0  0  0  0  0  0  0  0  0
  -21.1772   32.9067  -16.2233 C   0  0  0  0  0  0  0  0  0  0  0  0
  -18.7418   34.6413  -13.3220 C   0  0  0  0  0  0  0  0  0  0  0  0
  -18.0384   36.2735  -15.0243 C   0  0  0  0  0  0  0  0  0  0  0  0
  -22.2861   32.2262  -15.7619 N   0  0  0  0  0  0  0  0  0  0  0  0
  -19.5791   35.6929  -12.6008 C   0  0  0  0  0  0  0  0  0  0  0  0
  -18.8407   37.3722  -14.3217 C   0  0  0  0  0  0  0  0  0  0  0  0
  -22.7601   30.9926  -16.3848 C   0  0  0  0  0  0  0  0  0  0  0  0
  -23.1839   32.7685  -14.7470 C   0  0  0  0  0  0  0  0  0  0  0  0
  -19.0052   37.0898  -12.8297 C   0  0  0  0  0  0  0  0  0  0  0  0
  -24.0923   31.2681  -17.0830 C   0  0  0  0  0  0  0  0  0  0  0  0
  -24.5279   33.0988  -15.3968 C   0  0  0  0  0  0  0  0  0  0  0  0
  -25.1080   31.8789  -16.1153 C   0  0  0  0  0  0  0  0  0  0  0  0
  -17.6649   34.5145  -19.8899 H   0  0  0  0  0  0  0  0  0  0  0  0
  -17.7329   34.6098  -12.8919 H   0  0  0  0  0  0  0  0  0  0  0  0
  -19.1717   33.6449  -13.1676 H   0  0  0  0  0  0  0  0  0  0  0  0
  -16.9990   36.2795  -14.6764 H   0  0  0  0  0  0  0  0  0  0  0  0
  -18.0320   36.5042  -16.0931 H   0  0  0  0  0  0  0  0  0  0  0  0
  -19.6079   35.4750  -11.5276 H   0  0  0  0  0  0  0  0  0  0  0  0
  -20.6128   35.6603  -12.9667 H   0  0  0  0  0  0  0  0  0  0  0  0
  -18.3473   38.3401  -14.4642 H   0  0  0  0  0  0  0  0  0  0  0  0
  -19.8340   37.4463  -14.7825 H   0  0  0  0  0  0  0  0  0  0  0  0
  -22.8948   30.2260  -15.6118 H   0  0  0  0  0  0  0  0  0  0  0  0
  -22.0473   30.5793  -17.1059 H   0  0  0  0  0  0  0  0  0  0  0  0
  -23.3259   32.0231  -13.9547 H   0  0  0  0  0  0  0  0  0  0  0  0
  -22.7854   33.6627  -14.2567 H   0  0  0  0  0  0  0  0  0  0  0  0
  -18.0308   37.1717  -12.3328 H   0  0  0  0  0  0  0  0  0  0  0  0
  -19.6617   37.8415  -12.3778 H   0  0  0  0  0  0  0  0  0  0  0  0
  -24.4925   30.3389  -17.5028 H   0  0  0  0  0  0  0  0  0  0  0  0
  -23.9310   31.9597  -17.9194 H   0  0  0  0  0  0  0  0  0  0  0  0
  -25.2332   33.4513  -14.6364 H   0  0  0  0  0  0  0  0  0  0  0  0
  -24.3949   33.9135  -16.1195 H   0  0  0  0  0  0  0  0  0  0  0  0
  -25.3997   31.1258  -15.3730 H   0  0  0  0  0  0  0  0  0  0  0  0
  -26.0159   32.1633  -16.6586 H   0  0  0  0  0  0  0  0  0  0  0  0
  1  2  2  0  0  0  0
  2  3  1  0  0  0  0
  2  4  1  0  0  0  0
  3  5  1  0  0  0  0
  3  6  1  0  0  0  0
  4  7  1  0  0  0  0
  4 23  1  0  0  0  0
  5  8  2  0  0  0  0
  5  9  1  0  0  0  0
  6 10  1  0  0  0  0
  6  7  2  0  0  0  0
  8 11  1  0  0  0  0
  9 12  1  0  0  0  0
  9 13  1  0  0  0  0
 10 11  2  0  0  0  0
 11 14  1  0  0  0  0
 12 15  1  0  0  0  0
 12 24  1  0  0  0  0
 12 25  1  0  0  0  0
 13 16  1  0  0  0  0
 13 26  1  0  0  0  0
 13 27  1  0  0  0  0
 14 17  1  0  0  0  0
 14 18  1  0  0  0  0
 15 19  1  0  0  0  0
 15 28  1  0  0  0  0
 15 29  1  0  0  0  0
 16 19  1  0  0  0  0
 16 30  1  0  0  0  0
 16 31  1  0  0  0  0
 17 20  1  0  0  0  0
 17 32  1  0  0  0  0
 17 33  1  0  0  0  0
 18 21  1  0  0  0  0
 18 34  1  0  0  0  0
 18 35  1  0  0  0  0
 19 36  1  0  0  0  0
 19 37  1  0  0  0  0
 20 22  1  0  0  0  0
 20 38  1  0  0  0  0
 20 39  1  0  0  0  0
 21 22  1  0  0  0  0
 21 40  1  0  0  0  0
 21 41  1  0  0  0  0
 22 42  1  0  0  0  0
 22 43  1  0  0  0  0
M  END
>  <Column 1>
O=c1[nH]nc2nc(N3CCCCC3)nc(N3CCCCC3)n12 ZINC000000032938

>  <Total Molweight>
303.369

>  <cLogP>
1.9418

>  <cLogS>
-4.002

>  <H-Acceptors>
8

>  <H-Donors>
1

>  <Total Surface Area>
226.12

>  <MMFF94 Energy>
-171.9

> <Gold.Version>
5.8.1

> <Gold.Id.Protein>
ID|2FQT|mol2

> <Gold.PLP.Fitness>
52.6612

> <Gold.PLP.PLP>
-50.6227

> <Gold.PLP.part.hbond>
-3.5407

> <Gold.PLP.part.metal>
0.0000

> <Gold.PLP.part.buried>
-5.0776

> <Gold.PLP.part.nonpolar>
-43.0028

> <Gold.PLP.part.repulsive>
0.3648

> <Gold.PLP.ligand.clash>
0.0000

> <Gold.PLP.ligand.torsion>
0.8957

> <Gold.PLP.Chemscore.Hbond>
1.0333

> <Gold.PLP.Chemscore.CHOScore>
0.0000

> <Gold.PLP.Chemscore.Metal>
0.0000

> <Gold.Chemscore.Hbonds>
donor molecule, donor type, donor heavy atom, donor atom, acceptor molecule, acceptor atom, score
      P1  H  1912  4380       L1     7  1.00
      P1  H  1466  3954       L1     1  0.03

> <Gold.PLP.Chemscore.Internal.Correction>
0.7301

> <Gold.Protein.RotatedTorsions>
[ 3412  950  949  948 ] final -114.06 input   60.00 | X-H torsion
[ 3476 1244 1243 1240 ] final  -75.63 input   60.00 | X-H torsion
[ 2649 1223 1224 1225 ] final  153.53 input   60.00 | X-H torsion
[ 4380 1912 1911 1909 ] final  139.31 input   60.00 | X-H torsion
[ 3084  621  620  617 ] final   54.43 input   60.00 | X-H torsion

> <Gold.Protein.ActiveResidues>
 HIS54   GLU57   HIS58   ALA61   PHE62   ILE64   ARG65   ASP75   ILE76   ILE77  
 ASP78   ILE79   SER80   PRO81   ILE118  PRO119  ALA120  ALA121  ASN122  LYS124 
 GLN125  CYS126  GLY127  CO701   VAL4    GLU5    SER6    PHE7    GLU8    LEU9   
 HIS11   ARG20   HIS21   CYS22   GLY23   VAL24   HIS25   LYS35   ARG39   MET82  
 GLY83   CYS84   TYR89  

> <Gold.Protein.RotatedAtoms>
  -20.9974   38.7936  -16.2083 H   0  0  0  0  0  0  0  0  0  0  0  0  # atno 2649 bound_to 1223
  -21.4078   37.2741  -16.7275 H   0  0  0  0  0  0  0  0  0  0  0  0  # atno 2650 bound_to 1223
  -18.5772   28.7455  -12.8882 H   0  0  0  0  0  0  0  0  0  0  0  0  # atno 3084 bound_to 621 
  -28.4958   39.3305  -29.0694 H   0  0  0  0  0  0  0  0  0  0  0  0  # atno 3412 bound_to 950 
  -28.7272   38.0834  -28.0025 H   0  0  0  0  0  0  0  0  0  0  0  0  # atno 3413 bound_to 950 
  -27.6076   37.9389  -29.2161 H   0  0  0  0  0  0  0  0  0  0  0  0  # atno 3414 bound_to 950 
  -24.4170   32.5729  -20.5279 H   0  0  0  0  0  0  0  0  0  0  0  0  # atno 3476 bound_to 1244
  -19.7714   31.8981  -19.5900 H   0  0  0  0  0  0  0  0  0  0  0  0  # atno 4380 bound_to 1912
  -23.4216   31.5154  -19.7939 LP  0  0  0  0  0  0  0  0  0  0  0  0  # atno 4866 bound_to 1244
  -23.1492   31.9582  -21.3419 LP  0  0  0  0  0  0  0  0  0  0  0  0  # atno 4867 bound_to 1244
  -20.2244   38.1207  -17.4954 LP  0  0  0  0  0  0  0  0  0  0  0  0  # atno 4874 bound_to 1223
  -21.1055   31.2072  -18.9649 LP  0  0  0  0  0  0  0  0  0  0  0  0  # atno 4875 bound_to 1912
  -20.5633   30.7572  -20.4380 LP  0  0  0  0  0  0  0  0  0  0  0  0  # atno 4876 bound_to 1912
  -19.7491   28.0618  -13.7867 LP  0  0  0  0  0  0  0  0  0  0  0  0  # atno 4881 bound_to 621 
  -18.2576   27.3984  -13.7433 LP  0  0  0  0  0  0  0  0  0  0  0  0  # atno 4882 bound_to 621 

$$$$
Compound 166|Decoys_protonated|sdf|166|dock1
  -GOLD-   6122416213D 1   1.00000     0.00000

 27 28  0  0  0  0  0  0  0  0  1 V2000
  -18.7181   36.8278  -17.4590 O   0  0  0  0  0  0  0  0  0  0  0  0
  -18.9262   35.7524  -16.8948 C   0  0  0  0  0  0  0  0  0  0  0  0
  -19.2012   34.6590  -17.6636 N   0  0  0  0  0  0  0  0  0  0  0  0
  -18.9233   35.6089  -15.3667 C   0  0  0  0  0  0  0  0  0  0  0  0
  -19.3066   33.2997  -17.1990 C   0  0  0  0  0  0  0  0  0  0  0  0
  -20.2187   36.2057  -14.7980 C   0  0  0  0  0  0  0  0  0  0  0  0
  -18.8499   34.1314  -14.9070 C   0  0  0  0  0  0  0  0  0  0  0  0
  -17.6879   36.3783  -14.8320 C   0  0  0  0  0  0  0  0  0  0  0  0
  -19.7331   33.2160  -15.7483 C   0  0  0  0  0  0  0  0  0  0  0  0
  -21.3212   36.0313  -15.3171 O   0  0  0  0  0  0  0  0  0  0  0  0
  -20.1657   36.8561  -13.5952 N   0  0  0  0  0  0  0  0  0  0  0  0
  -17.7364   36.5669  -13.3209 C   0  0  0  0  0  0  0  0  0  0  0  0
  -18.9732   37.3667  -12.9642 C   0  0  0  0  0  0  0  0  0  0  0  0
  -19.2173   34.8459  -18.6594 H   0  0  0  0  0  0  0  0  0  0  0  0
  -20.0186   32.7772  -17.8452 H   0  0  0  0  0  0  0  0  0  0  0  0
  -18.3235   32.8372  -17.3391 H   0  0  0  0  0  0  0  0  0  0  0  0
  -17.8160   33.7678  -14.9736 H   0  0  0  0  0  0  0  0  0  0  0  0
  -19.1507   34.0325  -13.8566 H   0  0  0  0  0  0  0  0  0  0  0  0
  -17.6193   37.3707  -15.2976 H   0  0  0  0  0  0  0  0  0  0  0  0
  -16.7653   35.8526  -15.1088 H   0  0  0  0  0  0  0  0  0  0  0  0
  -20.7856   33.5017  -15.6457 H   0  0  0  0  0  0  0  0  0  0  0  0
  -19.6481   32.1823  -15.3951 H   0  0  0  0  0  0  0  0  0  0  0  0
  -21.0688   37.1808  -13.2684 H   0  0  0  0  0  0  0  0  0  0  0  0
  -16.8402   37.0945  -12.9758 H   0  0  0  0  0  0  0  0  0  0  0  0
  -17.7502   35.5964  -12.8130 H   0  0  0  0  0  0  0  0  0  0  0  0
  -19.1385   37.3693  -11.8824 H   0  0  0  0  0  0  0  0  0  0  0  0
  -18.8626   38.4071  -13.2896 H   0  0  0  0  0  0  0  0  0  0  0  0
  1  2  2  0  0  0  0
  2  3  1  0  0  0  0
  2  4  1  0  0  0  0
  3  5  1  0  0  0  0
  3 14  1  0  0  0  0
  4  6  1  0  0  0  0
  4  7  1  0  0  0  0
  4  8  1  0  0  0  0
  5  9  1  0  0  0  0
  5 15  1  0  0  0  0
  5 16  1  0  0  0  0
  6 10  2  0  0  0  0
  6 11  1  0  0  0  0
  7  9  1  0  0  0  0
  7 17  1  0  0  0  0
  7 18  1  0  0  0  0
  8 12  1  0  0  0  0
  8 19  1  0  0  0  0
  8 20  1  0  0  0  0
  9 21  1  0  0  0  0
  9 22  1  0  0  0  0
 11 13  1  0  0  0  0
 11 23  1  0  0  0  0
 12 13  1  0  0  0  0
 12 24  1  0  0  0  0
 12 25  1  0  0  0  0
 13 26  1  0  0  0  0
 13 27  1  0  0  0  0
M  END
>  <Column 1>
O=C1NCCCC12CCCNC2=O ZINC000000032975

>  <Total Molweight>
182.222

>  <cLogP>
-0.3618

>  <cLogS>
-1.297

>  <H-Acceptors>
4

>  <H-Donors>
2

>  <Total Surface Area>
137.89

>  <MMFF94 Energy>
-28.273

> <Gold.Version>
5.8.1

> <Gold.Id.Protein>
ID|2FQT|mol2

> <Gold.PLP.Fitness>
35.3485

> <Gold.PLP.PLP>
-23.8068

> <Gold.PLP.part.hbond>
-4.0000

> <Gold.PLP.part.metal>
0.0000

> <Gold.PLP.part.buried>
-1.3769

> <Gold.PLP.part.nonpolar>
-18.1692

> <Gold.PLP.part.repulsive>
0.2322

> <Gold.PLP.ligand.clash>
0.0000

> <Gold.PLP.ligand.torsion>
0.0000

> <Gold.PLP.Chemscore.Hbond>
3.8473

> <Gold.PLP.Chemscore.CHOScore>
0.0000

> <Gold.PLP.Chemscore.Metal>
0.0000

> <Gold.Chemscore.Hbonds>
donor molecule, donor type, donor heavy atom, donor atom, acceptor molecule, acceptor atom, score
      L1  H    11    23       P1   457  1.00
      P1  H  1223  2649       L1    10  0.96
      P1  H  1223  2650       L1     1  0.90
      P1  H  1230  2756       L1     1  0.99

> <Gold.PLP.Chemscore.Internal.Correction>
0.0000

> <Gold.Protein.RotatedTorsions>
[ 3412  950  949  948 ] final  100.78 input   60.00 | X-H torsion
[ 3476 1244 1243 1240 ] final   -8.07 input   60.00 | X-H torsion
[ 2649 1223 1224 1225 ] final -108.69 input   60.00 | X-H torsion
[ 4380 1912 1911 1909 ] final -113.78 input   60.00 | X-H torsion
[ 3084  621  620  617 ] final  155.27 input   60.00 | X-H torsion

> <Gold.Protein.ActiveResidues>
 HIS54   GLU57   HIS58   ALA61   PHE62   ILE64   ARG65   ASP75   ILE76   ILE77  
 ASP78   ILE79   SER80   PRO81   ILE118  PRO119  ALA120  ALA121  ASN122  LYS124 
 GLN125  CYS126  GLY127  CO701   VAL4    GLU5    SER6    PHE7    GLU8    LEU9   
 HIS11   ARG20   HIS21   CYS22   GLY23   VAL24   HIS25   LYS35   ARG39   MET82  
 GLY83   CYS84   TYR89  

> <Gold.Protein.RotatedAtoms>
  -21.5396   37.4798  -16.4513 H   0  0  0  0  0  0  0  0  0  0  0  0  # atno 2649 bound_to 1223
  -20.3499   37.7835  -17.5646 H   0  0  0  0  0  0  0  0  0  0  0  0  # atno 2650 bound_to 1223
  -18.0746   27.5685  -13.5551 H   0  0  0  0  0  0  0  0  0  0  0  0  # atno 3084 bound_to 621 
  -27.7278   37.6814  -28.9113 H   0  0  0  0  0  0  0  0  0  0  0  0  # atno 3412 bound_to 950 
  -28.2003   39.2117  -29.3382 H   0  0  0  0  0  0  0  0  0  0  0  0  # atno 3413 bound_to 950 
  -28.9024   38.4598  -28.0386 H   0  0  0  0  0  0  0  0  0  0  0  0  # atno 3414 bound_to 950 
  -23.8066   32.4644  -21.3643 H   0  0  0  0  0  0  0  0  0  0  0  0  # atno 3476 bound_to 1244
  -20.3854   30.8635  -20.4929 H   0  0  0  0  0  0  0  0  0  0  0  0  # atno 4380 bound_to 1912
  -24.2522   32.1543  -19.8303 LP  0  0  0  0  0  0  0  0  0  0  0  0  # atno 4866 bound_to 1244
  -22.9333   31.4286  -20.4631 LP  0  0  0  0  0  0  0  0  0  0  0  0  # atno 4867 bound_to 1244
  -20.7323   38.9132  -16.4313 LP  0  0  0  0  0  0  0  0  0  0  0  0  # atno 4874 bound_to 1223
  -19.8572   31.9470  -19.3997 LP  0  0  0  0  0  0  0  0  0  0  0  0  # atno 4875 bound_to 1912
  -21.1933   31.0593  -19.0939 LP  0  0  0  0  0  0  0  0  0  0  0  0  # atno 4876 bound_to 1912
  -18.8731   28.8395  -12.9266 LP  0  0  0  0  0  0  0  0  0  0  0  0  # atno 4881 bound_to 621 
  -19.6398   27.8059  -13.9317 LP  0  0  0  0  0  0  0  0  0  0  0  0  # atno 4882 bound_to 621 

$$$$
Compound 167|Decoys_protonated|sdf|167|dock2
  -GOLD-   6122416213D 1   1.00000     0.00000

 25 26  0  0  0  0  0  0  0  0  3 V2000
  -20.1721   35.5155  -18.0836 O   0  0  0  0  0  0  0  0  0  0  0  0
  -19.9792   34.4340  -17.5111 N   0  3  0  0  0  0  0  0  0  0  0  0
  -20.1945   33.3118  -17.9904 O   0  5  0  0  0  0  0  0  0  0  0  0
  -19.3727   34.4834  -16.1922 C   0  0  0  0  0  0  0  0  0  0  0  0
  -19.8427   33.6571  -15.1555 C   0  0  0  0  0  0  0  0  0  0  0  0
  -18.3538   35.4328  -16.0035 C   0  0  0  0  0  0  0  0  0  0  0  0
  -20.8640   32.6159  -15.3403 C   0  0  0  0  0  0  0  0  0  0  0  0
  -19.2509   33.8499  -13.8894 C   0  0  0  0  0  0  0  0  0  0  0  0
  -17.7860   35.5823  -14.7419 C   0  0  0  0  0  0  0  0  0  0  0  0
  -21.9308   32.9295  -16.0688 N   0  0  0  0  0  0  0  0  0  0  0  0
  -20.6210   31.4162  -14.8164 N   0  0  0  0  0  0  0  0  0  0  0  0
  -18.2384   34.7963  -13.6850 C   0  0  0  0  0  0  0  0  0  0  0  0
  -22.8052   31.9503  -16.2232 C   0  0  0  0  0  0  0  0  0  0  0  0
  -21.5633   30.5159  -15.0400 C   0  0  0  0  0  0  0  0  0  0  0  0
  -22.6697   30.7289  -15.7335 N   0  0  0  0  0  0  0  0  0  0  0  0
  -23.9321   32.2253  -16.9425 N   0  0  0  0  0  0  0  0  0  0  0  0
  -21.3778   29.2690  -14.5156 N   0  0  0  0  0  0  0  0  0  0  0  0
  -18.0131   36.0567  -16.8275 H   0  0  0  0  0  0  0  0  0  0  0  0
  -19.5731   33.2427  -13.0429 H   0  0  0  0  0  0  0  0  0  0  0  0
  -16.9980   36.3141  -14.5792 H   0  0  0  0  0  0  0  0  0  0  0  0
  -17.8009   34.9130  -12.6954 H   0  0  0  0  0  0  0  0  0  0  0  0
  -24.0413   33.1525  -17.3170 H   0  0  0  0  0  0  0  0  0  0  0  0
  -24.6575   31.5307  -16.9733 H   0  0  0  0  0  0  0  0  0  0  0  0
  -20.5387   29.0990  -13.9888 H   0  0  0  0  0  0  0  0  0  0  0  0
  -22.0500   28.5539  -14.7301 H   0  0  0  0  0  0  0  0  0  0  0  0
  1  2  2  0  0  0  0
  2  3  1  0  0  0  0
  2  4  1  0  0  0  0
  4  5  2  0  0  0  0
  4  6  1  0  0  0  0
  5  7  1  0  0  0  0
  5  8  1  0  0  0  0
  6  9  2  0  0  0  0
  6 18  1  0  0  0  0
  7 10  2  0  0  0  0
  7 11  1  0  0  0  0
  8 12  2  0  0  0  0
  8 19  1  0  0  0  0
  9 12  1  0  0  0  0
  9 20  1  0  0  0  0
 10 13  1  0  0  0  0
 11 14  2  0  0  0  0
 12 21  1  0  0  0  0
 13 15  2  0  0  0  0
 13 16  1  0  0  0  0
 14 17  1  0  0  0  0
 14 15  1  0  0  0  0
 16 22  1  0  0  0  0
 16 23  1  0  0  0  0
 17 24  1  0  0  0  0
 17 25  1  0  0  0  0
M  CHG  1   2   1
M  CHG  1   3  -1
M  END
>  <Column 1>
Nc1nc(N)nc(-c2ccccc2[N+](=O)[O-])n1 ZINC000000033068

>  <Total Molweight>
232.203

>  <cLogP>
0.0785

>  <cLogS>
-4.288

>  <H-Acceptors>
7

>  <H-Donors>
2

>  <Total Surface Area>
170.01

>  <MMFF94 Energy>
-198.58

> <Gold.Version>
5.8.1

> <Gold.Id.Protein>
ID|2FQT|mol2

> <Gold.PLP.Fitness>
49.6898

> <Gold.PLP.PLP>
-36.6709

> <Gold.PLP.part.hbond>
-6.9296

> <Gold.PLP.part.metal>
0.0000

> <Gold.PLP.part.buried>
-8.5109

> <Gold.PLP.part.nonpolar>
-22.5658

> <Gold.PLP.part.repulsive>
0.6724

> <Gold.PLP.ligand.clash>
0.0000

> <Gold.PLP.ligand.torsion>
1.4256

> <Gold.PLP.Chemscore.Hbond>
4.6418

> <Gold.PLP.Chemscore.CHOScore>
0.0000

> <Gold.PLP.Chemscore.Metal>
0.0000

> <Gold.Chemscore.Hbonds>
donor molecule, donor type, donor heavy atom, donor atom, acceptor molecule, acceptor atom, score
      L1  H    17    24       P1   621  0.89
      L1  H    17    25       P1   427  0.75
      P1  H  1223  2650       L1     1  1.00
      P1  H  1912  4380       L1     3  1.00
      P1  H  1239  3336       L1     1  1.00

> <Gold.PLP.Chemscore.Internal.Correction>
1.9448

> <Gold.Protein.RotatedTorsions>
[ 3412  950  949  948 ] final  109.57 input   60.00 | X-H torsion
[ 3476 1244 1243 1240 ] final   42.53 input   60.00 | X-H torsion
[ 2649 1223 1224 1225 ] final -162.61 input   60.00 | X-H torsion
[ 4380 1912 1911 1909 ] final   85.95 input   60.00 | X-H torsion
[ 3084  621  620  617 ] final  160.56 input   60.00 | X-H torsion

> <Gold.Protein.ActiveResidues>
 HIS54   GLU57   HIS58   ALA61   PHE62   ILE64   ARG65   ASP75   ILE76   ILE77  
 ASP78   ILE79   SER80   PRO81   ILE118  PRO119  ALA120  ALA121  ASN122  LYS124 
 GLN125  CYS126  GLY127  CO701   VAL4    GLU5    SER6    PHE7    GLU8    LEU9   
 HIS11   ARG20   HIS21   CYS22   GLY23   VAL24   HIS25   LYS35   ARG39   MET82  
 GLY83   CYS84   TYR89  

> <Gold.Protein.RotatedAtoms>
  -21.4411   38.2515  -16.0670 H   0  0  0  0  0  0  0  0  0  0  0  0  # atno 2649 bound_to 1223
  -20.9440   37.2243  -17.2690 H   0  0  0  0  0  0  0  0  0  0  0  0  # atno 2650 bound_to 1223
  -18.1184   27.5161  -13.6079 H   0  0  0  0  0  0  0  0  0  0  0  0  # atno 3084 bound_to 621 
  -27.6723   37.7567  -29.0241 H   0  0  0  0  0  0  0  0  0  0  0  0  # atno 3412 bound_to 950 
  -28.3048   39.2714  -29.2545 H   0  0  0  0  0  0  0  0  0  0  0  0  # atno 3413 bound_to 950 
  -28.8534   38.3247  -28.0095 H   0  0  0  0  0  0  0  0  0  0  0  0  # atno 3414 bound_to 950 
  -23.1701   31.9799  -21.3487 H   0  0  0  0  0  0  0  0  0  0  0  0  # atno 3476 bound_to 1244
  -20.3055   31.8590  -18.9419 H   0  0  0  0  0  0  0  0  0  0  0  0  # atno 4380 bound_to 1912
  -24.4283   32.5666  -20.4998 LP  0  0  0  0  0  0  0  0  0  0  0  0  # atno 4866 bound_to 1244
  -23.3982   31.5042  -19.8093 LP  0  0  0  0  0  0  0  0  0  0  0  0  # atno 4867 bound_to 1244
  -20.2442   38.7039  -17.1012 LP  0  0  0  0  0  0  0  0  0  0  0  0  # atno 4874 bound_to 1223
  -21.2214   30.7090  -19.6396 LP  0  0  0  0  0  0  0  0  0  0  0  0  # atno 4875 bound_to 1912
  -19.9095   31.2947  -20.4159 LP  0  0  0  0  0  0  0  0  0  0  0  0  # atno 4876 bound_to 1912
  -18.7894   28.8235  -12.9090 LP  0  0  0  0  0  0  0  0  0  0  0  0  # atno 4881 bound_to 621 
  -19.6793   27.8747  -13.8962 LP  0  0  0  0  0  0  0  0  0  0  0  0  # atno 4882 bound_to 621 

$$$$
Compound 168|Decoys_protonated|sdf|168|dock2
  -GOLD-   6122416213D 1   1.00000     0.00000

 27 28  0  0  0  0  0  0  0  0  3 V2000
  -18.4861   35.0291  -13.8426 Cl  0  0  0  0  0  0  0  0  0  0  0  0
  -19.7633   34.1438  -14.5769 C   0  0  0  0  0  0  0  0  0  0  0  0
  -19.9548   32.8063  -14.2603 C   0  0  0  0  0  0  0  0  0  0  0  0
  -20.6061   34.7645  -15.4881 C   0  0  0  0  0  0  0  0  0  0  0  0
  -20.9984   32.0892  -14.8618 C   0  0  0  0  0  0  0  0  0  0  0  0
  -21.6457   34.0375  -16.0847 C   0  0  0  0  0  0  0  0  0  0  0  0
  -21.8750   32.6799  -15.7914 C   0  0  0  0  0  0  0  0  0  0  0  0
  -22.9065   31.9651  -16.3850 N   0  0  0  0  0  0  0  0  0  0  0  0
  -22.9200   30.5235  -16.3759 C   0  0  0  0  0  0  0  0  0  0  0  0
  -24.0133   32.6352  -17.0222 C   0  0  0  0  0  0  0  0  0  0  0  0
  -24.2177   29.9927  -16.6553 N   0  0  0  0  0  0  0  0  0  0  0  0
  -24.7273   31.7733  -17.9149 N   0  0  0  0  0  0  0  0  0  0  0  0
  -25.0374   30.4882  -17.6137 C   0  0  0  0  0  0  0  0  0  0  0  0
  -25.9536   29.7143  -18.1031 N   0  0  0  0  0  0  0  0  0  0  0  0
  -26.7456   30.1892  -19.0822 N   0  3  0  0  0  0  0  0  0  0  0  0
  -27.2871   29.4194  -19.8956 O   0  0  0  0  0  0  0  0  0  0  0  0
  -26.8907   31.4177  -19.1445 O   0  5  0  0  0  0  0  0  0  0  0  0
  -19.2985   32.3080  -13.5517 H   0  0  0  0  0  0  0  0  0  0  0  0
  -20.4693   35.8128  -15.7396 H   0  0  0  0  0  0  0  0  0  0  0  0
  -21.0908   31.0398  -14.5935 H   0  0  0  0  0  0  0  0  0  0  0  0
  -22.2887   34.5775  -16.7747 H   0  0  0  0  0  0  0  0  0  0  0  0
  -22.2109   30.1386  -17.1188 H   0  0  0  0  0  0  0  0  0  0  0  0
  -22.6134   30.1398  -15.3956 H   0  0  0  0  0  0  0  0  0  0  0  0
  -24.7072   33.0160  -16.2629 H   0  0  0  0  0  0  0  0  0  0  0  0
  -23.6615   33.4920  -17.6091 H   0  0  0  0  0  0  0  0  0  0  0  0
  -24.3910   29.0425  -16.3567 H   0  0  0  0  0  0  0  0  0  0  0  0
  -25.3203   32.2515  -18.5879 H   0  0  0  0  0  0  0  0  0  0  0  0
  1  2  1  0  0  0  0
  2  3  2  0  0  0  0
  2  4  1  0  0  0  0
  3  5  1  0  0  0  0
  3 18  1  0  0  0  0
  4  6  2  0  0  0  0
  4 19  1  0  0  0  0
  5  7  2  0  0  0  0
  5 20  1  0  0  0  0
  6  7  1  0  0  0  0
  6 21  1  0  0  0  0
  7  8  1  0  0  0  0
  8  9  1  0  0  0  0
  8 10  1  0  0  0  0
  9 11  1  0  0  0  0
  9 22  1  0  0  0  0
  9 23  1  0  0  0  0
 10 12  1  0  0  0  0
 10 24  1  0  0  0  0
 10 25  1  0  0  0  0
 11 13  1  0  0  0  0
 11 26  1  0  0  0  0
 12 13  1  0  0  0  0
 12 27  1  0  0  0  0
 13 14  2  0  0  0  0
 14 15  1  0  0  0  0
 15 16  2  0  0  0  0
 15 17  1  0  0  0  0
M  CHG  1  15   1
M  CHG  1  17  -1
M  END
>  <Column 1>
O=[N+]([O-])N=C1NCN(c2ccc(Cl)cc2)CN1 ZINC000000033112

>  <Total Molweight>
255.664

>  <cLogP>
1.9082

>  <cLogS>
-4.823

>  <H-Acceptors>
6

>  <H-Donors>
2

>  <Total Surface Area>
182.56

>  <MMFF94 Energy>
-205.86

> <Gold.Version>
5.8.1

> <Gold.Id.Protein>
ID|2FQT|mol2

> <Gold.PLP.Fitness>
53.9864

> <Gold.PLP.PLP>
-35.8312

> <Gold.PLP.part.hbond>
-3.7425

> <Gold.PLP.part.metal>
-2.3200

> <Gold.PLP.part.buried>
2.0907

> <Gold.PLP.part.nonpolar>
-33.9069

> <Gold.PLP.part.repulsive>
0.3744

> <Gold.PLP.ligand.clash>
0.0000

> <Gold.PLP.ligand.torsion>
0.2738

> <Gold.PLP.Chemscore.Hbond>
0.8654

> <Gold.PLP.Chemscore.CHOScore>
0.0000

> <Gold.PLP.Chemscore.Metal>
2.6838

> <Gold.Chemscore.Hbonds>
donor molecule, donor type, donor heavy atom, donor atom, acceptor molecule, acceptor atom, score
      L1  H    11    26       P1   427  0.07
      P1  H   966  3428       L1    16  0.80
      P1  M  1222  1222       L1    14  0.70
      P1  M  1222  1222       L1    16  1.00
      P1  M  1222  1222       L1    17  0.99

> <Gold.PLP.Chemscore.Internal.Correction>
0.0036

> <Gold.Protein.RotatedTorsions>
[ 3412  950  949  948 ] final   30.60 input   60.00 | X-H torsion
[ 3476 1244 1243 1240 ] final  157.56 input   60.00 | X-H torsion
[ 2649 1223 1224 1225 ] final  -35.33 input   60.00 | X-H torsion
[ 4380 1912 1911 1909 ] final   76.24 input   60.00 | X-H torsion
[ 3084  621  620  617 ] final  153.11 input   60.00 | X-H torsion

> <Gold.Protein.ActiveResidues>
 HIS54   GLU57   HIS58   ALA61   PHE62   ILE64   ARG65   ASP75   ILE76   ILE77  
 ASP78   ILE79   SER80   PRO81   ILE118  PRO119  ALA120  ALA121  ASN122  LYS124 
 GLN125  CYS126  GLY127  CO701   VAL4    GLU5    SER6    PHE7    GLU8    LEU9   
 HIS11   ARG20   HIS21   CYS22   GLY23   VAL24   HIS25   LYS35   ARG39   MET82  
 GLY83   CYS84   TYR89  

> <Gold.Protein.RotatedAtoms>
  -20.8548   37.2647  -17.3411 H   0  0  0  0  0  0  0  0  0  0  0  0  # atno 2649 bound_to 1223
  -20.2729   38.7814  -17.0122 H   0  0  0  0  0  0  0  0  0  0  0  0  # atno 2650 bound_to 1223
  -18.0585   27.5913  -13.5333 H   0  0  0  0  0  0  0  0  0  0  0  0  # atno 3084 bound_to 621 
  -28.4721   37.7817  -28.1072 H   0  0  0  0  0  0  0  0  0  0  0  0  # atno 3412 bound_to 950 
  -27.6129   38.2860  -29.4318 H   0  0  0  0  0  0  0  0  0  0  0  0  # atno 3413 bound_to 950 
  -28.7455   39.2851  -28.7491 H   0  0  0  0  0  0  0  0  0  0  0  0  # atno 3414 bound_to 950 
  -23.3371   31.4823  -19.8591 H   0  0  0  0  0  0  0  0  0  0  0  0  # atno 3476 bound_to 1244
  -20.4348   31.7942  -18.8772 H   0  0  0  0  0  0  0  0  0  0  0  0  # atno 4380 bound_to 1912
  -23.2214   32.0311  -21.3866 LP  0  0  0  0  0  0  0  0  0  0  0  0  # atno 4866 bound_to 1244
  -24.4370   32.5408  -20.4226 LP  0  0  0  0  0  0  0  0  0  0  0  0  # atno 4867 bound_to 1244
  -21.4829   38.1420  -16.0989 LP  0  0  0  0  0  0  0  0  0  0  0  0  # atno 4874 bound_to 1223
  -21.1721   30.6618  -19.7839 LP  0  0  0  0  0  0  0  0  0  0  0  0  # atno 4875 bound_to 1912
  -19.8285   31.4071  -20.3368 LP  0  0  0  0  0  0  0  0  0  0  0  0  # atno 4876 bound_to 1912
  -18.9074   28.8442  -12.9352 LP  0  0  0  0  0  0  0  0  0  0  0  0  # atno 4881 bound_to 621 
  -19.6217   27.7783  -13.9452 LP  0  0  0  0  0  0  0  0  0  0  0  0  # atno 4882 bound_to 621 

$$$$
Compound 169|Decoys_protonated|sdf|169|dock1
  -GOLD-   6122416213D 1   1.00000     0.00000

 32 34  0  0  0  0  0  0  0  0  1 V2000
  -20.0064   34.4039  -17.2078 S   0  0  0  0  0  0  0  0  0  0  0  0
  -19.2194   33.3794  -17.8625 O   0  0  0  0  0  0  0  0  0  0  0  0
  -20.7198   35.4018  -17.9705 O   0  0  0  0  0  0  0  0  0  0  0  0
  -21.1033   33.6303  -16.2199 N   0  0  0  0  0  0  0  0  0  0  0  0
  -18.9615   35.2467  -16.0800 C   0  0  0  0  0  0  0  0  0  0  0  0
  -22.5398   33.7474  -16.4901 C   0  0  0  0  0  0  0  0  0  0  0  0
  -18.3644   36.4927  -16.3783 C   0  0  0  0  0  0  0  0  0  0  0  0
  -18.6872   34.6925  -14.8091 C   0  0  0  0  0  0  0  0  0  0  0  0
  -23.2877   32.6716  -15.6848 C   0  0  1  0  0  0  0  0  0  0  0  0
  -18.4763   37.2205  -17.5021 N   0  0  0  0  0  0  0  0  0  0  0  0
  -17.4778   37.1625  -15.3515 C   0  0  0  0  0  0  0  0  0  0  0  0
  -17.8568   35.3265  -13.8569 C   0  0  0  0  0  0  0  0  0  0  0  0
  -24.7101   32.9002  -15.8120 O   0  0  0  0  0  0  0  0  0  0  0  0
  -23.0301   31.2646  -16.2039 C   0  0  0  0  0  0  0  0  0  0  0  0
  -17.5540   38.5820  -17.2989 S   0  0  0  0  0  0  0  0  0  0  0  0
  -16.9797   38.3385  -15.7616 N   0  0  0  0  0  0  0  0  0  0  0  0
  -17.2337   36.5633  -14.0915 C   0  0  0  0  0  0  0  0  0  0  0  0
  -25.2951   31.7926  -16.5099 C   0  0  0  0  0  0  0  0  0  0  0  0
  -24.1587   31.0571  -17.1828 C   0  0  0  0  0  0  0  0  0  0  0  0
  -20.8177   33.5469  -15.2416 H   0  0  0  0  0  0  0  0  0  0  0  0
  -22.8655   34.7452  -16.1768 H   0  0  0  0  0  0  0  0  0  0  0  0
  -22.7357   33.6181  -17.5593 H   0  0  0  0  0  0  0  0  0  0  0  0
  -19.1265   33.7290  -14.5428 H   0  0  0  0  0  0  0  0  0  0  0  0
  -23.0225   32.7522  -14.6243 H   0  0  0  0  0  0  0  0  0  0  0  0
  -17.6899   34.8319  -12.8990 H   0  0  0  0  0  0  0  0  0  0  0  0
  -22.0385   31.1284  -16.6444 H   0  0  0  0  0  0  0  0  0  0  0  0
  -23.1317   30.5475  -15.3798 H   0  0  0  0  0  0  0  0  0  0  0  0
  -16.5977   37.0389  -13.3540 H   0  0  0  0  0  0  0  0  0  0  0  0
  -26.0413   32.1573  -17.2211 H   0  0  0  0  0  0  0  0  0  0  0  0
  -25.7961   31.1580  -15.7710 H   0  0  0  0  0  0  0  0  0  0  0  0
  -24.3858   30.0050  -17.3733 H   0  0  0  0  0  0  0  0  0  0  0  0
  -23.9158   31.5341  -18.1393 H   0  0  0  0  0  0  0  0  0  0  0  0
  1  2  2  0  0  0  0
  1  3  2  0  0  0  0
  1  4  1  0  0  0  0
  1  5  1  0  0  0  0
  4  6  1  0  0  0  0
  4 20  1  0  0  0  0
  5  7  1  0  0  0  0
  5  8  2  0  0  0  0
  6  9  1  0  0  0  0
  6 21  1  0  0  0  0
  6 22  1  0  0  0  0
  7 10  2  0  0  0  0
  7 11  1  0  0  0  0
  8 12  1  0  0  0  0
  8 23  1  0  0  0  0
  9 13  1  0  0  0  0
  9 14  1  0  0  0  0
  9 24  1  0  0  0  0
 10 15  1  0  0  0  0
 11 16  2  0  0  0  0
 11 17  1  0  0  0  0
 12 17  2  0  0  0  0
 12 25  1  0  0  0  0
 13 18  1  0  0  0  0
 14 19  1  0  0  0  0
 14 26  1  0  0  0  0
 14 27  1  0  0  0  0
 15 16  1  0  0  0  0
 17 28  1  0  0  0  0
 18 19  1  0  0  0  0
 18 29  1  0  0  0  0
 18 30  1  0  0  0  0
 19 31  1  0  0  0  0
 19 32  1  0  0  0  0
M  END
>  <Column 1>
O=S(=O)(NC[C@@H]1CCCO1)c1cccc2nsnc12 ZINC000000033207

>  <Total Molweight>
299.374

>  <cLogP>
1.6014

>  <cLogS>
1.514

>  <H-Acceptors>
6

>  <H-Donors>
1

>  <Total Surface Area>
205.4

>  <MMFF94 Energy>
-36.504

> <Gold.Version>
5.8.1

> <Gold.Id.Protein>
ID|2FQT|mol2

> <Gold.PLP.Fitness>
54.6414

> <Gold.PLP.PLP>
-42.8624

> <Gold.PLP.part.hbond>
-6.0000

> <Gold.PLP.part.metal>
0.0000

> <Gold.PLP.part.buried>
-7.8881

> <Gold.PLP.part.nonpolar>
-29.1455

> <Gold.PLP.part.repulsive>
0.1789

> <Gold.PLP.ligand.clash>
0.0000

> <Gold.PLP.ligand.torsion>
1.8549

> <Gold.PLP.Chemscore.Hbond>
4.1660

> <Gold.PLP.Chemscore.CHOScore>
0.0000

> <Gold.PLP.Chemscore.Metal>
0.0000

> <Gold.Chemscore.Hbonds>
donor molecule, donor type, donor heavy atom, donor atom, acceptor molecule, acceptor atom, score
      P1  H  1223  2649       L1     3  1.00
      P1  H  1223  2650       L1    10  0.17
      P1  H  1912  4380       L1     2  1.00
      P1  H  1230  2756       L1    10  1.00
      P1  H  1239  3336       L1     3  1.00

> <Gold.PLP.Chemscore.Internal.Correction>
2.9908

> <Gold.Protein.RotatedTorsions>
[ 3412  950  949  948 ] final   70.78 input   60.00 | X-H torsion
[ 3476 1244 1243 1240 ] final  -51.40 input   60.00 | X-H torsion
[ 2649 1223 1224 1225 ] final  -61.15 input   60.00 | X-H torsion
[ 4380 1912 1911 1909 ] final  106.02 input   60.00 | X-H torsion
[ 3084  621  620  617 ] final   83.29 input   60.00 | X-H torsion

> <Gold.Protein.ActiveResidues>
 HIS54   GLU57   HIS58   ALA61   PHE62   ILE64   ARG65   ASP75   ILE76   ILE77  
 ASP78   ILE79   SER80   PRO81   ILE118  PRO119  ALA120  ALA121  ASN122  LYS124 
 GLN125  CYS126  GLY127  CO701   VAL4    GLU5    SER6    PHE7    GLU8    LEU9   
 HIS11   ARG20   HIS21   CYS22   GLY23   VAL24   HIS25   LYS35   ARG39   MET82  
 GLY83   CYS84   TYR89  

> <Gold.Protein.RotatedAtoms>
  -21.1622   37.1834  -17.0552 H   0  0  0  0  0  0  0  0  0  0  0  0  # atno 2649 bound_to 1223
  -20.1734   38.4892  -17.3081 H   0  0  0  0  0  0  0  0  0  0  0  0  # atno 2650 bound_to 1223
  -18.1998   28.4780  -12.9484 H   0  0  0  0  0  0  0  0  0  0  0  0  # atno 3084 bound_to 621 
  -28.0041   37.5674  -28.5162 H   0  0  0  0  0  0  0  0  0  0  0  0  # atno 3412 bound_to 950 
  -27.8715   38.8850  -29.5130 H   0  0  0  0  0  0  0  0  0  0  0  0  # atno 3413 bound_to 950 
  -28.9550   38.9003  -28.2589 H   0  0  0  0  0  0  0  0  0  0  0  0  # atno 3414 bound_to 950 
  -24.2865   32.6282  -20.8944 H   0  0  0  0  0  0  0  0  0  0  0  0  # atno 3476 bound_to 1244
  -20.0579   31.9396  -19.1384 H   0  0  0  0  0  0  0  0  0  0  0  0  # atno 4380 bound_to 1912
  -23.7451   31.7057  -19.6681 LP  0  0  0  0  0  0  0  0  0  0  0  0  # atno 4866 bound_to 1244
  -22.9571   31.7122  -21.0984 LP  0  0  0  0  0  0  0  0  0  0  0  0  # atno 4867 bound_to 1244
  -21.2781   38.5100  -16.0890 LP  0  0  0  0  0  0  0  0  0  0  0  0  # atno 4874 bound_to 1223
  -21.2548   30.8572  -19.3483 LP  0  0  0  0  0  0  0  0  0  0  0  0  # atno 4875 bound_to 1912
  -20.1254   31.0654  -20.5093 LP  0  0  0  0  0  0  0  0  0  0  0  0  # atno 4876 bound_to 1912
  -19.7271   28.4399  -13.5087 LP  0  0  0  0  0  0  0  0  0  0  0  0  # atno 4881 bound_to 621 
  -18.6597   27.2896  -13.9606 LP  0  0  0  0  0  0  0  0  0  0  0  0  # atno 4882 bound_to 621 

$$$$
Compound 170|Decoys_protonated|sdf|170|dock4
  -GOLD-   6122416213D 1   1.00000     0.00000

 38 41  0  0  0  0  0  0  0  0  1 V2000
  -19.0432   34.9614  -18.2446 S   0  0  0  0  0  0  0  0  0  0  0  0
  -18.6289   36.2323  -17.1379 C   0  0  0  0  0  0  0  0  0  0  0  0
  -20.5003   34.3702  -17.5228 C   0  0  0  0  0  0  0  0  0  0  0  0
  -18.3441   37.4768  -17.4817 N   0  0  0  0  0  0  0  0  0  0  0  0
  -18.5121   36.0369  -15.7806 N   0  0  0  0  0  0  0  0  0  0  0  0
  -21.5342   35.1057  -17.1846 N   0  0  0  0  0  0  0  0  0  0  0  0
  -20.6764   33.0581  -17.1844 N   0  0  0  0  0  0  0  0  0  0  0  0
  -18.0404   38.0921  -16.3067 C   0  0  0  0  0  0  0  0  0  0  0  0
  -18.1305   37.2428  -15.2471 C   0  0  0  0  0  0  0  0  0  0  0  0
  -18.7393   34.8346  -15.0134 C   0  0  0  0  0  0  0  0  0  0  0  0
  -22.4268   34.2234  -16.6228 C   0  0  0  0  0  0  0  0  0  0  0  0
  -21.9143   32.9288  -16.6130 C   0  0  0  0  0  0  0  0  0  0  0  0
  -17.6771   39.4083  -16.1546 N   0  0  0  0  0  0  0  0  0  0  0  0
  -17.8566   37.6396  -13.9082 C   0  0  0  0  0  0  0  0  0  0  0  0
  -23.7053   34.4554  -16.0952 C   0  0  0  0  0  0  0  0  0  0  0  0
  -22.6098   31.8302  -16.1050 C   0  0  0  0  0  0  0  0  0  0  0  0
  -17.3930   39.8950  -14.8769 C   0  0  0  0  0  0  0  0  0  0  0  0
  -17.5810   40.2814  -17.3102 C   0  0  0  0  0  0  0  0  0  0  0  0
  -17.9290   36.8658  -12.9590 O   0  0  0  0  0  0  0  0  0  0  0  0
  -17.4995   38.9868  -13.8041 N   0  0  0  0  0  0  0  0  0  0  0  0
  -24.4256   33.3710  -15.5773 C   0  0  0  0  0  0  0  0  0  0  0  0
  -23.8845   32.0826  -15.5842 C   0  0  0  0  0  0  0  0  0  0  0  0
  -17.0607   41.0684  -14.6870 O   0  0  0  0  0  0  0  0  0  0  0  0
  -17.1999   39.5138  -12.4864 C   0  0  0  0  0  0  0  0  0  0  0  0
  -20.0051   32.3255  -17.3760 H   0  0  0  0  0  0  0  0  0  0  0  0
  -19.4743   35.0547  -14.2345 H   0  0  0  0  0  0  0  0  0  0  0  0
  -19.1243   34.0313  -15.6421 H   0  0  0  0  0  0  0  0  0  0  0  0
  -17.7889   34.5271  -14.5696 H   0  0  0  0  0  0  0  0  0  0  0  0
  -24.1194   35.4574  -16.0935 H   0  0  0  0  0  0  0  0  0  0  0  0
  -22.1897   30.8307  -16.1092 H   0  0  0  0  0  0  0  0  0  0  0  0
  -17.2933   41.2987  -17.0331 H   0  0  0  0  0  0  0  0  0  0  0  0
  -16.8297   39.8803  -17.9979 H   0  0  0  0  0  0  0  0  0  0  0  0
  -18.5533   40.3175  -17.8121 H   0  0  0  0  0  0  0  0  0  0  0  0
  -25.4182   33.5375  -15.1653 H   0  0  0  0  0  0  0  0  0  0  0  0
  -24.4658   31.2581  -15.1754 H   0  0  0  0  0  0  0  0  0  0  0  0
  -17.8651   40.3590  -12.2809 H   0  0  0  0  0  0  0  0  0  0  0  0
  -16.1682   39.8804  -12.4780 H   0  0  0  0  0  0  0  0  0  0  0  0
  -17.3191   38.7680  -11.6968 H   0  0  0  0  0  0  0  0  0  0  0  0
  1  2  1  0  0  0  0
  1  3  1  0  0  0  0
  2  4  2  0  0  0  0
  2  5  1  0  0  0  0
  3  6  2  0  0  0  0
  3  7  1  0  0  0  0
  4  8  1  0  0  0  0
  5  9  1  0  0  0  0
  5 10  1  0  0  0  0
  6 11  1  0  0  0  0
  7 12  1  0  0  0  0
  7 25  1  0  0  0  0
  8 13  1  0  0  0  0
  8  9  2  0  0  0  0
  9 14  1  0  0  0  0
 10 26  1  0  0  0  0
 10 27  1  0  0  0  0
 10 28  1  0  0  0  0
 11 15  1  0  0  0  0
 11 12  2  0  0  0  0
 12 16  1  0  0  0  0
 13 17  1  0  0  0  0
 13 18  1  0  0  0  0
 14 19  2  0  0  0  0
 14 20  1  0  0  0  0
 15 21  2  0  0  0  0
 15 29  1  0  0  0  0
 16 22  2  0  0  0  0
 16 30  1  0  0  0  0
 17 23  2  0  0  0  0
 17 20  1  0  0  0  0
 18 31  1  0  0  0  0
 18 32  1  0  0  0  0
 18 33  1  0  0  0  0
 20 24  1  0  0  0  0
 21 22  1  0  0  0  0
 21 34  1  0  0  0  0
 22 35  1  0  0  0  0
 24 36  1  0  0  0  0
 24 37  1  0  0  0  0
 24 38  1  0  0  0  0
M  END
>  <Column 1>
Cn1c(=O)c2c(nc(Sc3nc4ccccc4[nH]3)n2C)n(C)c1=O ZINC000000033396

>  <Total Molweight>
342.382

>  <cLogP>
1.7265

>  <cLogS>
-2.679

>  <H-Acceptors>
8

>  <H-Donors>
1

>  <Total Surface Area>
240.78

>  <MMFF94 Energy>
-127.47

> <Gold.Version>
5.8.1

> <Gold.Id.Protein>
ID|2FQT|mol2

> <Gold.PLP.Fitness>
55.9094

> <Gold.PLP.PLP>
-49.1859

> <Gold.PLP.part.hbond>
-3.8158

> <Gold.PLP.part.metal>
0.0000

> <Gold.PLP.part.buried>
-6.2819

> <Gold.PLP.part.nonpolar>
-38.9871

> <Gold.PLP.part.repulsive>
0.1506

> <Gold.PLP.ligand.clash>
0.0000

> <Gold.PLP.ligand.torsion>
0.1030

> <Gold.PLP.Chemscore.Hbond>
2.3073

> <Gold.PLP.Chemscore.CHOScore>
0.0000

> <Gold.PLP.Chemscore.Metal>
0.0000

> <Gold.Chemscore.Hbonds>
donor molecule, donor type, donor heavy atom, donor atom, acceptor molecule, acceptor atom, score
      P1  H  1223  2649       L1     6  0.84
      P1  H  1223  2650       L1     4  0.52
      P1  H  1230  2756       L1     4  0.94

> <Gold.PLP.Chemscore.Internal.Correction>
0.0075

> <Gold.Protein.RotatedTorsions>
[ 3412  950  949  948 ] final   54.98 input   60.00 | X-H torsion
[ 3476 1244 1243 1240 ] final  127.67 input   60.00 | X-H torsion
[ 2649 1223 1224 1225 ] final  -79.32 input   60.00 | X-H torsion
[ 4380 1912 1911 1909 ] final   -5.11 input   60.00 | X-H torsion
[ 3084  621  620  617 ] final   35.98 input   60.00 | X-H torsion

> <Gold.Protein.ActiveResidues>
 HIS54   GLU57   HIS58   ALA61   PHE62   ILE64   ARG65   ASP75   ILE76   ILE77  
 ASP78   ILE79   SER80   PRO81   ILE118  PRO119  ALA120  ALA121  ASN122  LYS124 
 GLN125  CYS126  GLY127  CO701   VAL4    GLU5    SER6    PHE7    GLU8    LEU9   
 HIS11   ARG20   HIS21   CYS22   GLY23   VAL24   HIS25   LYS35   ARG39   MET82  
 GLY83   CYS84   TYR89  

> <Gold.Protein.RotatedAtoms>
  -21.3471   37.2318  -16.8212 H   0  0  0  0  0  0  0  0  0  0  0  0  # atno 2649 bound_to 1223
  -20.1869   38.2283  -17.4598 H   0  0  0  0  0  0  0  0  0  0  0  0  # atno 2650 bound_to 1223
  -18.8624   28.8311  -12.9260 H   0  0  0  0  0  0  0  0  0  0  0  0  # atno 3084 bound_to 621 
  -28.1847   37.6032  -28.3284 H   0  0  0  0  0  0  0  0  0  0  0  0  # atno 3412 bound_to 950 
  -27.7373   38.6591  -29.5252 H   0  0  0  0  0  0  0  0  0  0  0  0  # atno 3413 bound_to 950 
  -28.9085   39.0904  -28.4345 H   0  0  0  0  0  0  0  0  0  0  0  0  # atno 3414 bound_to 950 
  -23.0333   31.4079  -20.2268 H   0  0  0  0  0  0  0  0  0  0  0  0  # atno 3476 bound_to 1244
  -21.2326   30.9415  -19.2318 H   0  0  0  0  0  0  0  0  0  0  0  0  # atno 4380 bound_to 1912
  -23.5971   32.3353  -21.4393 LP  0  0  0  0  0  0  0  0  0  0  0  0  # atno 4866 bound_to 1244
  -24.3673   32.3116  -19.9996 LP  0  0  0  0  0  0  0  0  0  0  0  0  # atno 4867 bound_to 1244
  -21.0826   38.7194  -16.1701 LP  0  0  0  0  0  0  0  0  0  0  0  0  # atno 4874 bound_to 1223
  -20.2364   30.9712  -20.5181 LP  0  0  0  0  0  0  0  0  0  0  0  0  # atno 4875 bound_to 1912
  -19.9608   31.9565  -19.2454 LP  0  0  0  0  0  0  0  0  0  0  0  0  # atno 4876 bound_to 1912
  -19.6455   27.8150  -13.9272 LP  0  0  0  0  0  0  0  0  0  0  0  0  # atno 4881 bound_to 621 
  -18.0740   27.5589  -13.5647 LP  0  0  0  0  0  0  0  0  0  0  0  0  # atno 4882 bound_to 621 

$$$$
Compound 171|Decoys_protonated|sdf|171|dock6
  -GOLD-   6122416213D 1   1.00000     0.00000

 29 30  0  0  0  0  0  0  0  0  3 V2000
  -20.0954   33.2718  -17.2875 O   0  0  0  0  0  0  0  0  0  0  0  0
  -19.7493   34.3575  -17.7688 N   0  3  0  0  0  0  0  0  0  0  0  0
  -20.4252   35.3945  -17.7961 O   0  5  0  0  0  0  0  0  0  0  0  0
  -18.4775   34.3992  -18.4187 C   0  0  0  0  0  0  0  0  0  0  0  0
  -17.3664   35.1537  -18.0717 C   0  0  0  0  0  0  0  0  0  0  0  0
  -18.1171   33.7125  -19.5894 C   0  0  0  0  0  0  0  0  0  0  0  0
  -16.4679   34.9353  -19.0876 N   0  0  0  0  0  0  0  0  0  0  0  0
  -17.1172   36.0149  -16.9325 C   0  0  0  0  0  0  0  0  0  0  0  0
  -16.8902   34.0385  -20.0035 N   0  0  0  0  0  0  0  0  0  0  0  0
  -15.1543   35.5245  -19.2333 C   0  0  0  0  0  0  0  0  0  0  0  0
  -16.3073   36.9375  -17.0014 O   0  0  0  0  0  0  0  0  0  0  0  0
  -17.7347   35.7822  -15.6691 N   0  0  0  0  0  0  0  0  0  0  0  0
  -18.4388   34.6239  -15.4826 N   0  0  0  0  0  0  0  0  0  0  0  0
  -17.6915   36.5366  -14.5040 C   0  0  0  0  0  0  0  0  0  0  0  0
  -18.8754   34.6820  -14.2217 C   0  0  0  0  0  0  0  0  0  0  0  0
  -18.4310   35.8463  -13.5678 C   0  0  0  0  0  0  0  0  0  0  0  0
  -16.9846   37.8363  -14.3874 C   0  0  0  0  0  0  0  0  0  0  0  0
  -19.7174   33.5910  -13.6738 C   0  0  0  0  0  0  0  0  0  0  0  0
  -18.7014   33.0090  -20.1705 H   0  0  0  0  0  0  0  0  0  0  0  0
  -14.5994   34.9865  -20.0067 H   0  0  0  0  0  0  0  0  0  0  0  0
  -15.2804   36.5702  -19.5229 H   0  0  0  0  0  0  0  0  0  0  0  0
  -14.6242   35.4427  -18.2813 H   0  0  0  0  0  0  0  0  0  0  0  0
  -18.6266   36.1481  -12.5475 H   0  0  0  0  0  0  0  0  0  0  0  0
  -15.9042   37.7036  -14.5017 H   0  0  0  0  0  0  0  0  0  0  0  0
  -17.1601   38.2850  -13.4038 H   0  0  0  0  0  0  0  0  0  0  0  0
  -17.3406   38.5456  -15.1410 H   0  0  0  0  0  0  0  0  0  0  0  0
  -20.0234   33.8069  -12.6452 H   0  0  0  0  0  0  0  0  0  0  0  0
  -19.1659   32.6453  -13.6725 H   0  0  0  0  0  0  0  0  0  0  0  0
  -20.6224   33.4646  -14.2768 H   0  0  0  0  0  0  0  0  0  0  0  0
  1  2  2  0  0  0  0
  2  3  1  0  0  0  0
  2  4  1  0  0  0  0
  4  5  2  0  0  0  0
  4  6  1  0  0  0  0
  5  7  1  0  0  0  0
  5  8  1  0  0  0  0
  6  9  2  0  0  0  0
  6 19  1  0  0  0  0
  7 10  1  0  0  0  0
  7  9  1  0  0  0  0
  8 11  2  0  0  0  0
  8 12  1  0  0  0  0
 10 20  1  0  0  0  0
 10 21  1  0  0  0  0
 10 22  1  0  0  0  0
 12 13  1  0  0  0  0
 12 14  1  0  0  0  0
 13 15  2  0  0  0  0
 14 16  2  0  0  0  0
 14 17  1  0  0  0  0
 15 18  1  0  0  0  0
 15 16  1  0  0  0  0
 16 23  1  0  0  0  0
 17 24  1  0  0  0  0
 17 25  1  0  0  0  0
 17 26  1  0  0  0  0
 18 27  1  0  0  0  0
 18 28  1  0  0  0  0
 18 29  1  0  0  0  0
M  CHG  1   2   1
M  CHG  1   3  -1
M  END
>  <Column 1>
Cc1cc(C)n(C(=O)c2c([N+](=O)[O-])cnn2C)n1 ZINC000000033406

>  <Total Molweight>
249.229

>  <cLogP>
-0.5337

>  <cLogS>
-2.862

>  <H-Acceptors>
7

>  <H-Donors>
0

>  <Total Surface Area>
187.14

>  <MMFF94 Energy>
66.725

> <Gold.Version>
5.8.1

> <Gold.Id.Protein>
ID|2FQT|mol2

> <Gold.PLP.Fitness>
53.4396

> <Gold.PLP.PLP>
-45.2084

> <Gold.PLP.part.hbond>
-4.5375

> <Gold.PLP.part.metal>
0.0000

> <Gold.PLP.part.buried>
-6.4236

> <Gold.PLP.part.nonpolar>
-36.6527

> <Gold.PLP.part.repulsive>
0.6469

> <Gold.PLP.ligand.clash>
0.0000

> <Gold.PLP.ligand.torsion>
1.5885

> <Gold.PLP.Chemscore.Hbond>
2.0000

> <Gold.PLP.Chemscore.CHOScore>
1.3893

> <Gold.PLP.Chemscore.Metal>
0.0000

> <Gold.Chemscore.Hbonds>
donor molecule, donor type, donor heavy atom, donor atom, acceptor molecule, acceptor atom, score
      P1  H  1223  2649       L1     3  1.00
      P1  H  1239  3336       L1     3  1.00
      L1  C     6    19       P1  1912  1.00
      L1  C     6    19       P1  1237  0.39

> <Gold.PLP.Chemscore.Internal.Correction>
1.2403

> <Gold.Protein.RotatedTorsions>
[ 3412  950  949  948 ] final  107.94 input   60.00 | X-H torsion
[ 3476 1244 1243 1240 ] final  -10.01 input   60.00 | X-H torsion
[ 2649 1223 1224 1225 ] final  -34.40 input   60.00 | X-H torsion
[ 4380 1912 1911 1909 ] final  -34.84 input   60.00 | X-H torsion
[ 3084  621  620  617 ] final   37.26 input   60.00 | X-H torsion

> <Gold.Protein.ActiveResidues>
 HIS54   GLU57   HIS58   ALA61   PHE62   ILE64   ARG65   ASP75   ILE76   ILE77  
 ASP78   ILE79   SER80   PRO81   ILE118  PRO119  ALA120  ALA121  ASN122  LYS124 
 GLN125  CYS126  GLY127  CO701   VAL4    GLU5    SER6    PHE7    GLU8    LEU9   
 HIS11   ARG20   HIS21   CYS22   GLY23   VAL24   HIS25   LYS35   ARG39   MET82  
 GLY83   CYS84   TYR89  

> <Gold.Protein.RotatedAtoms>
  -20.8435   37.2708  -17.3497 H   0  0  0  0  0  0  0  0  0  0  0  0  # atno 2649 bound_to 1223
  -20.2789   38.7895  -17.0004 H   0  0  0  0  0  0  0  0  0  0  0  0  # atno 2650 bound_to 1223
  -18.8424   28.8276  -12.9215 H   0  0  0  0  0  0  0  0  0  0  0  0  # atno 3084 bound_to 621 
  -27.6816   37.7414  -29.0035 H   0  0  0  0  0  0  0  0  0  0  0  0  # atno 3412 bound_to 950 
  -28.2853   39.2617  -29.2710 H   0  0  0  0  0  0  0  0  0  0  0  0  # atno 3413 bound_to 950 
  -28.8636   38.3497  -28.0136 H   0  0  0  0  0  0  0  0  0  0  0  0  # atno 3414 bound_to 950 
  -23.8322   32.4782  -21.3516 H   0  0  0  0  0  0  0  0  0  0  0  0  # atno 3476 bound_to 1244
  -21.2116   30.7069  -19.6505 H   0  0  0  0  0  0  0  0  0  0  0  0  # atno 4380 bound_to 1912
  -24.2347   32.1339  -19.8129 LP  0  0  0  0  0  0  0  0  0  0  0  0  # atno 4866 bound_to 1244
  -22.9250   31.4350  -20.4932 LP  0  0  0  0  0  0  0  0  0  0  0  0  # atno 4867 bound_to 1244
  -21.4881   38.1280  -16.1021 LP  0  0  0  0  0  0  0  0  0  0  0  0  # atno 4874 bound_to 1223
  -19.9022   31.3039  -20.4102 LP  0  0  0  0  0  0  0  0  0  0  0  0  # atno 4875 bound_to 1912
  -20.3162   31.8600  -18.9317 LP  0  0  0  0  0  0  0  0  0  0  0  0  # atno 4876 bound_to 1912
  -19.6554   27.8315  -13.9189 LP  0  0  0  0  0  0  0  0  0  0  0  0  # atno 4881 bound_to 621 
  -18.0842   27.5459  -13.5776 LP  0  0  0  0  0  0  0  0  0  0  0  0  # atno 4882 bound_to 621 

$$$$
Compound 172|Decoys_protonated|sdf|172|dock5
  -GOLD-   6122416213D 1   1.00000     0.00000

 31 32  0  0  0  0  0  0  0  0  1 V2000
  -18.2171   38.0861  -12.4389 O   0  0  0  0  0  0  0  0  0  0  0  0
  -17.2086   37.4948  -13.2714 C   0  0  0  0  0  0  0  0  0  0  0  0
  -18.9841   37.0558  -11.7995 C   0  0  0  0  0  0  0  0  0  0  0  0
  -17.8238   36.6343  -14.3843 C   0  0  0  0  0  0  0  0  0  0  0  0
  -19.7084   36.1692  -12.8225 C   0  0  0  0  0  0  0  0  0  0  0  0
  -18.7681   35.6625  -13.8259 N   0  0  0  0  0  0  0  0  0  0  0  0
  -19.1775   34.6131  -14.6260 C   0  0  0  0  0  0  0  0  0  0  0  0
  -19.8354   33.5990  -14.0694 N   0  0  0  0  0  0  0  0  0  0  0  0
  -18.8862   34.6461  -15.9174 N   0  0  0  0  0  0  0  0  0  0  0  0
  -20.2070   32.5927  -14.8527 C   0  0  0  0  0  0  0  0  0  0  0  0
  -19.3002   33.5908  -16.6143 C   0  0  0  0  0  0  0  0  0  0  0  0
  -19.9630   32.5381  -16.1474 N   0  0  0  0  0  0  0  0  0  0  0  0
  -20.8869   31.5287  -14.3279 N   0  0  0  0  0  0  0  0  0  0  0  0
  -19.0011   33.5930  -18.0214 C   0  0  0  0  0  0  0  0  0  0  0  0
  -21.6571   30.6376  -15.1571 C   0  0  0  0  0  0  0  0  0  0  0  0
  -18.7581   33.5977  -19.1596 N   0  0  0  0  0  0  0  0  0  0  0  0
  -22.6552   31.4322  -15.9830 C   0  0  0  0  0  0  0  0  0  0  0  0
  -16.6217   38.3071  -13.7122 H   0  0  0  0  0  0  0  0  0  0  0  0
  -16.5325   36.9002  -12.6448 H   0  0  0  0  0  0  0  0  0  0  0  0
  -18.3189   36.4580  -11.1643 H   0  0  0  0  0  0  0  0  0  0  0  0
  -19.7159   37.5416  -11.1462 H   0  0  0  0  0  0  0  0  0  0  0  0
  -18.3614   37.2827  -15.0875 H   0  0  0  0  0  0  0  0  0  0  0  0
  -17.0027   36.1471  -14.9230 H   0  0  0  0  0  0  0  0  0  0  0  0
  -20.2004   35.3584  -12.2726 H   0  0  0  0  0  0  0  0  0  0  0  0
  -20.4807   36.7600  -13.3307 H   0  0  0  0  0  0  0  0  0  0  0  0
  -20.8318   31.4193  -13.3269 H   0  0  0  0  0  0  0  0  0  0  0  0
  -20.9985   30.0795  -15.8330 H   0  0  0  0  0  0  0  0  0  0  0  0
  -22.2019   29.9147  -14.5384 H   0  0  0  0  0  0  0  0  0  0  0  0
  -23.2455   30.7624  -16.6161 H   0  0  0  0  0  0  0  0  0  0  0  0
  -23.3433   31.9895  -15.3382 H   0  0  0  0  0  0  0  0  0  0  0  0
  -22.1440   32.1532  -16.6298 H   0  0  0  0  0  0  0  0  0  0  0  0
  1  2  1  0  0  0  0
  1  3  1  0  0  0  0
  2  4  1  0  0  0  0
  2 18  1  0  0  0  0
  2 19  1  0  0  0  0
  3  5  1  0  0  0  0
  3 20  1  0  0  0  0
  3 21  1  0  0  0  0
  4  6  1  0  0  0  0
  4 22  1  0  0  0  0
  4 23  1  0  0  0  0
  5  6  1  0  0  0  0
  5 24  1  0  0  0  0
  5 25  1  0  0  0  0
  6  7  1  0  0  0  0
  7  8  2  0  0  0  0
  7  9  1  0  0  0  0
  8 10  1  0  0  0  0
  9 11  2  0  0  0  0
 10 12  2  0  0  0  0
 10 13  1  0  0  0  0
 11 14  1  0  0  0  0
 11 12  1  0  0  0  0
 13 15  1  0  0  0  0
 13 26  1  0  0  0  0
 14 16  3  0  0  0  0
 15 17  1  0  0  0  0
 15 27  1  0  0  0  0
 15 28  1  0  0  0  0
 17 29  1  0  0  0  0
 17 30  1  0  0  0  0
 17 31  1  0  0  0  0
M  END
>  <Column 1>
CCNc1nc(C#N)nc(N2CCOCC2)n1 ZINC000000033668

>  <Total Molweight>
234.262

>  <cLogP>
0.1591

>  <cLogS>
-2.051

>  <H-Acceptors>
7

>  <H-Donors>
1

>  <Total Surface Area>
190.57

>  <MMFF94 Energy>
-121.85

> <Gold.Version>
5.8.1

> <Gold.Id.Protein>
ID|2FQT|mol2

> <Gold.PLP.Fitness>
44.6225

> <Gold.PLP.PLP>
-39.3500

> <Gold.PLP.part.hbond>
-2.0000

> <Gold.PLP.part.metal>
0.0000

> <Gold.PLP.part.buried>
-8.5845

> <Gold.PLP.part.nonpolar>
-28.4981

> <Gold.PLP.part.repulsive>
0.4723

> <Gold.PLP.ligand.clash>
0.0000

> <Gold.PLP.ligand.torsion>
0.4707

> <Gold.PLP.Chemscore.Hbond>
2.0000

> <Gold.PLP.Chemscore.CHOScore>
0.0000

> <Gold.PLP.Chemscore.Metal>
0.0000

> <Gold.Chemscore.Hbonds>
donor molecule, donor type, donor heavy atom, donor atom, acceptor molecule, acceptor atom, score
      L1  H    13    26       P1   611  1.00
      P1  H  1912  4380       L1    16  1.00

> <Gold.PLP.Chemscore.Internal.Correction>
0.2138

> <Gold.Protein.RotatedTorsions>
[ 3412  950  949  948 ] final -110.38 input   60.00 | X-H torsion
[ 3476 1244 1243 1240 ] final   65.45 input   60.00 | X-H torsion
[ 2649 1223 1224 1225 ] final  -76.84 input   60.00 | X-H torsion
[ 4380 1912 1911 1909 ] final  149.14 input   60.00 | X-H torsion
[ 3084  621  620  617 ] final   66.34 input   60.00 | X-H torsion

> <Gold.Protein.ActiveResidues>
 HIS54   GLU57   HIS58   ALA61   PHE62   ILE64   ARG65   ASP75   ILE76   ILE77  
 ASP78   ILE79   SER80   PRO81   ILE118  PRO119  ALA120  ALA121  ASN122  LYS124 
 GLN125  CYS126  GLY127  CO701   VAL4    GLU5    SER6    PHE7    GLU8    LEU9   
 HIS11   ARG20   HIS21   CYS22   GLY23   VAL24   HIS25   LYS35   ARG39   MET82  
 GLY83   CYS84   TYR89  

> <Gold.Protein.RotatedAtoms>
  -21.3243   37.2201  -16.8537 H   0  0  0  0  0  0  0  0  0  0  0  0  # atno 2649 bound_to 1223
  -20.1809   38.2655  -17.4427 H   0  0  0  0  0  0  0  0  0  0  0  0  # atno 2650 bound_to 1223
  -18.4070   28.6525  -12.8955 H   0  0  0  0  0  0  0  0  0  0  0  0  # atno 3084 bound_to 621 
  -28.5369   39.3341  -29.0238 H   0  0  0  0  0  0  0  0  0  0  0  0  # atno 3412 bound_to 950 
  -28.6933   38.0325  -28.0095 H   0  0  0  0  0  0  0  0  0  0  0  0  # atno 3413 bound_to 950 
  -27.6004   37.9862  -29.2548 H   0  0  0  0  0  0  0  0  0  0  0  0  # atno 3414 bound_to 950 
  -22.9791   31.7457  -21.1318 H   0  0  0  0  0  0  0  0  0  0  0  0  # atno 3476 bound_to 1244
  -19.7287   31.8452  -19.7351 H   0  0  0  0  0  0  0  0  0  0  0  0  # atno 4380 bound_to 1912
  -24.3163   32.6296  -20.8517 LP  0  0  0  0  0  0  0  0  0  0  0  0  # atno 4866 bound_to 1244
  -23.7026   31.6770  -19.6759 LP  0  0  0  0  0  0  0  0  0  0  0  0  # atno 4867 bound_to 1244
  -21.1109   38.6942  -16.1550 LP  0  0  0  0  0  0  0  0  0  0  0  0  # atno 4874 bound_to 1223
  -21.0180   31.3214  -18.8916 LP  0  0  0  0  0  0  0  0  0  0  0  0  # atno 4875 bound_to 1912
  -20.6938   30.6963  -20.3650 LP  0  0  0  0  0  0  0  0  0  0  0  0  # atno 4876 bound_to 1912
  -19.7677   28.2231  -13.6779 LP  0  0  0  0  0  0  0  0  0  0  0  0  # atno 4881 bound_to 621 
  -18.4104   27.3307  -13.8447 LP  0  0  0  0  0  0  0  0  0  0  0  0  # atno 4882 bound_to 621 

$$$$
Compound 173|Decoys_protonated|sdf|173|dock1
  -GOLD-   6122416213D 1   1.00000     0.00000

 28 28  0  0  0  0  0  0  0  0  1 V2000
  -23.2042   36.1459  -17.2218 O   0  0  0  0  0  0  0  0  0  0  0  0
  -22.4050   35.0228  -17.1986 C   0  0  0  0  0  0  0  0  0  0  0  0
  -23.7182   36.5043  -15.9458 C   0  0  0  0  0  0  0  0  0  0  0  0
  -23.0261   33.9178  -16.8054 N   0  0  0  0  0  0  0  0  0  0  0  0
  -21.1335   35.1110  -17.5521 N   0  0  0  0  0  0  0  0  0  0  0  0
  -22.3048   32.8023  -16.7662 C   0  0  0  0  0  0  0  0  0  0  0  0
  -20.5003   33.9461  -17.4758 C   0  0  0  0  0  0  0  0  0  0  0  0
  -21.0194   32.7793  -17.0967 N   0  0  0  0  0  0  0  0  0  0  0  0
  -22.9079   31.6292  -16.3627 N   0  0  0  0  0  0  0  0  0  0  0  0
  -19.1088   33.9417  -17.8412 C   0  0  0  0  0  0  0  0  0  0  0  0
  -22.0970   30.4732  -16.0016 C   0  0  0  0  0  0  0  0  0  0  0  0
  -24.3630   31.5397  -16.3232 C   0  0  0  0  0  0  0  0  0  0  0  0
  -17.9821   33.9400  -18.1322 N   0  0  0  0  0  0  0  0  0  0  0  0
  -20.9348   30.8581  -15.0974 C   0  0  0  0  0  0  0  0  0  0  0  0
  -24.9679   32.5741  -15.3851 C   0  0  0  0  0  0  0  0  0  0  0  0
  -24.3338   37.4001  -16.0734 H   0  0  0  0  0  0  0  0  0  0  0  0
  -24.3604   35.7150  -15.5400 H   0  0  0  0  0  0  0  0  0  0  0  0
  -22.9113   36.7524  -15.2474 H   0  0  0  0  0  0  0  0  0  0  0  0
  -21.6905   30.0029  -16.9054 H   0  0  0  0  0  0  0  0  0  0  0  0
  -22.7072   29.6977  -15.5217 H   0  0  0  0  0  0  0  0  0  0  0  0
  -24.6900   30.5325  -16.0363 H   0  0  0  0  0  0  0  0  0  0  0  0
  -24.7752   31.7014  -17.3269 H   0  0  0  0  0  0  0  0  0  0  0  0
  -21.2791   31.3164  -14.1653 H   0  0  0  0  0  0  0  0  0  0  0  0
  -20.2661   31.5686  -15.5921 H   0  0  0  0  0  0  0  0  0  0  0  0
  -20.3489   29.9699  -14.8399 H   0  0  0  0  0  0  0  0  0  0  0  0
  -24.7248   33.5911  -15.7067 H   0  0  0  0  0  0  0  0  0  0  0  0
  -24.6076   32.4529  -14.3589 H   0  0  0  0  0  0  0  0  0  0  0  0
  -26.0584   32.4783  -15.3729 H   0  0  0  0  0  0  0  0  0  0  0  0
  1  2  1  0  0  0  0
  1  3  1  0  0  0  0
  2  4  2  0  0  0  0
  2  5  1  0  0  0  0
  3 16  1  0  0  0  0
  3 17  1  0  0  0  0
  3 18  1  0  0  0  0
  4  6  1  0  0  0  0
  5  7  2  0  0  0  0
  6  8  2  0  0  0  0
  6  9  1  0  0  0  0
  7 10  1  0  0  0  0
  7  8  1  0  0  0  0
  9 11  1  0  0  0  0
  9 12  1  0  0  0  0
 10 13  3  0  0  0  0
 11 14  1  0  0  0  0
 11 19  1  0  0  0  0
 11 20  1  0  0  0  0
 12 15  1  0  0  0  0
 12 21  1  0  0  0  0
 12 22  1  0  0  0  0
 14 23  1  0  0  0  0
 14 24  1  0  0  0  0
 14 25  1  0  0  0  0
 15 26  1  0  0  0  0
 15 27  1  0  0  0  0
 15 28  1  0  0  0  0
M  END
>  <Column 1>
CCN(CC)c1nc(C#N)nc(OC)n1 ZINC000000033738

>  <Total Molweight>
207.236

>  <cLogP>
1.0758

>  <cLogS>
-2.242

>  <H-Acceptors>
6

>  <H-Donors>
0

>  <Total Surface Area>
175.85

>  <MMFF94 Energy>
-136.14

> <Gold.Version>
5.8.1

> <Gold.Id.Protein>
ID|2FQT|mol2

> <Gold.PLP.Fitness>
46.3432

> <Gold.PLP.PLP>
-37.8055

> <Gold.PLP.part.hbond>
-4.5309

> <Gold.PLP.part.metal>
0.0000

> <Gold.PLP.part.buried>
-4.1801

> <Gold.PLP.part.nonpolar>
-29.8621

> <Gold.PLP.part.repulsive>
0.1380

> <Gold.PLP.ligand.clash>
0.0000

> <Gold.PLP.ligand.torsion>
0.2992

> <Gold.PLP.Chemscore.Hbond>
3.0444

> <Gold.PLP.Chemscore.CHOScore>
0.0000

> <Gold.PLP.Chemscore.Metal>
0.0000

> <Gold.Chemscore.Hbonds>
donor molecule, donor type, donor heavy atom, donor atom, acceptor molecule, acceptor atom, score
      P1  H  1223  2650       L1     5  0.62
      P1  H  1912  4380       L1     8  0.96
      P1  H  1239  3336       L1     5  0.76
      P1  H  1466  3954       L1    13  0.70

> <Gold.PLP.Chemscore.Internal.Correction>
0.0028

> <Gold.Protein.RotatedTorsions>
[ 3412  950  949  948 ] final  110.65 input   60.00 | X-H torsion
[ 3476 1244 1243 1240 ] final  -31.83 input   60.00 | X-H torsion
[ 2649 1223 1224 1225 ] final -172.68 input   60.00 | X-H torsion
[ 4380 1912 1911 1909 ] final   51.38 input   60.00 | X-H torsion
[ 3084  621  620  617 ] final -163.10 input   60.00 | X-H torsion

> <Gold.Protein.ActiveResidues>
 HIS54   GLU57   HIS58   ALA61   PHE62   ILE64   ARG65   ASP75   ILE76   ILE77  
 ASP78   ILE79   SER80   PRO81   ILE118  PRO119  ALA120  ALA121  ASN122  LYS124 
 GLN125  CYS126  GLY127  CO701   VAL4    GLU5    SER6    PHE7    GLU8    LEU9   
 HIS11   ARG20   HIS21   CYS22   GLY23   VAL24   HIS25   LYS35   ARG39   MET82  
 GLY83   CYS84   TYR89  

> <Gold.Protein.RotatedAtoms>
  -21.3603   38.3987  -16.0616 H   0  0  0  0  0  0  0  0  0  0  0  0  # atno 2649 bound_to 1223
  -21.0650   37.1908  -17.1574 H   0  0  0  0  0  0  0  0  0  0  0  0  # atno 2650 bound_to 1223
  -18.5651   27.3013  -13.9164 H   0  0  0  0  0  0  0  0  0  0  0  0  # atno 3084 bound_to 621 
  -27.6665   37.7671  -29.0376 H   0  0  0  0  0  0  0  0  0  0  0  0  # atno 3412 bound_to 950 
  -28.3176   39.2774  -29.2434 H   0  0  0  0  0  0  0  0  0  0  0  0  # atno 3413 bound_to 950 
  -28.8464   38.3083  -28.0071 H   0  0  0  0  0  0  0  0  0  0  0  0  # atno 3414 bound_to 950 
  -24.0993   32.5942  -21.1494 H   0  0  0  0  0  0  0  0  0  0  0  0  # atno 3476 bound_to 1244
  -20.7627   31.5676  -18.8168 H   0  0  0  0  0  0  0  0  0  0  0  0  # atno 4380 bound_to 1912
  -23.9986   31.9012  -19.6805 LP  0  0  0  0  0  0  0  0  0  0  0  0  # atno 4866 bound_to 1244
  -22.8922   31.5509  -20.8293 LP  0  0  0  0  0  0  0  0  0  0  0  0  # atno 4867 bound_to 1244
  -20.2045   38.5918  -17.2164 LP  0  0  0  0  0  0  0  0  0  0  0  0  # atno 4874 bound_to 1223
  -20.9604   30.6248  -20.1283 LP  0  0  0  0  0  0  0  0  0  0  0  0  # atno 4875 bound_to 1912
  -19.7100   31.6724  -20.0533 LP  0  0  0  0  0  0  0  0  0  0  0  0  # atno 4876 bound_to 1912
  -18.2673   28.5535  -12.9208 LP  0  0  0  0  0  0  0  0  0  0  0  0  # atno 4881 bound_to 621 
  -19.7516   28.3610  -13.5737 LP  0  0  0  0  0  0  0  0  0  0  0  0  # atno 4882 bound_to 621 

$$$$
Compound 174|Decoys_protonated|sdf|174|dock1
  -GOLD-   6122416213D 1   1.00000     0.00000

 31 32  0  0  0  0  0  0  0  0  1 V2000
  -25.7189   29.7466  -18.4887 S   0  0  0  0  0  0  0  0  0  0  0  0
  -25.0734   28.5410  -18.9530 O   0  0  0  0  0  0  0  0  0  0  0  0
  -26.5563   30.5555  -19.3432 O   0  0  0  0  0  0  0  0  0  0  0  0
  -26.6880   29.2851  -17.1982 N   0  0  0  0  0  0  0  0  0  0  0  0
  -24.5227   30.7790  -17.6950 C   0  0  0  0  0  0  0  0  0  0  0  0
  -24.7889   32.1362  -17.5126 C   0  0  0  0  0  0  0  0  0  0  0  0
  -23.2998   30.2390  -17.2958 C   0  0  0  0  0  0  0  0  0  0  0  0
  -23.8293   32.9529  -16.9045 C   0  0  0  0  0  0  0  0  0  0  0  0
  -22.3457   31.0626  -16.6892 C   0  0  0  0  0  0  0  0  0  0  0  0
  -22.5976   32.4281  -16.4831 C   0  0  0  0  0  0  0  0  0  0  0  0
  -21.6310   33.2554  -15.8686 N   0  0  0  0  0  0  0  0  0  0  0  0
  -21.6080   34.6494  -15.9215 C   0  0  0  0  0  0  0  0  0  0  0  0
  -20.5480   32.8074  -15.1115 C   0  0  0  0  0  0  0  0  0  0  0  0
  -22.3712   35.4031  -16.5101 O   0  0  0  0  0  0  0  0  0  0  0  0
  -20.5000   35.0635  -15.1768 N   0  0  0  0  0  0  0  0  0  0  0  0
  -20.2497   31.6590  -14.8126 O   0  0  0  0  0  0  0  0  0  0  0  0
  -19.8410   33.9431  -14.7064 N   0  0  0  0  0  0  0  0  0  0  0  0
  -19.9835   36.3938  -15.0193 C   0  0  0  0  0  0  0  0  0  0  0  0
  -18.7132   34.0179  -13.8213 C   0  0  0  0  0  0  0  0  0  0  0  0
  -27.5091   29.8887  -17.1484 H   0  0  0  0  0  0  0  0  0  0  0  0
  -26.1361   29.2673  -16.3402 H   0  0  0  0  0  0  0  0  0  0  0  0
  -25.7331   32.5683  -17.8374 H   0  0  0  0  0  0  0  0  0  0  0  0
  -23.0785   29.1851  -17.4511 H   0  0  0  0  0  0  0  0  0  0  0  0
  -24.0672   34.0054  -16.7635 H   0  0  0  0  0  0  0  0  0  0  0  0
  -21.3984   30.6171  -16.3918 H   0  0  0  0  0  0  0  0  0  0  0  0
  -20.6588   37.1147  -15.4882 H   0  0  0  0  0  0  0  0  0  0  0  0
  -19.8940   36.6274  -13.9553 H   0  0  0  0  0  0  0  0  0  0  0  0
  -19.0049   36.4608  -15.5027 H   0  0  0  0  0  0  0  0  0  0  0  0
  -18.3724   33.0111  -13.5647 H   0  0  0  0  0  0  0  0  0  0  0  0
  -19.0077   34.5353  -12.9041 H   0  0  0  0  0  0  0  0  0  0  0  0
  -17.8986   34.5569  -14.3119 H   0  0  0  0  0  0  0  0  0  0  0  0
  1  2  2  0  0  0  0
  1  3  2  0  0  0  0
  1  4  1  0  0  0  0
  1  5  1  0  0  0  0
  4 20  1  0  0  0  0
  4 21  1  0  0  0  0
  5  6  2  0  0  0  0
  5  7  1  0  0  0  0
  6  8  1  0  0  0  0
  6 22  1  0  0  0  0
  7  9  2  0  0  0  0
  7 23  1  0  0  0  0
  8 10  2  0  0  0  0
  8 24  1  0  0  0  0
  9 10  1  0  0  0  0
  9 25  1  0  0  0  0
 10 11  1  0  0  0  0
 11 12  1  0  0  0  0
 11 13  1  0  0  0  0
 12 14  2  0  0  0  0
 12 15  1  0  0  0  0
 13 16  2  0  0  0  0
 13 17  1  0  0  0  0
 15 18  1  0  0  0  0
 15 17  1  0  0  0  0
 17 19  1  0  0  0  0
 18 26  1  0  0  0  0
 18 27  1  0  0  0  0
 18 28  1  0  0  0  0
 19 29  1  0  0  0  0
 19 30  1  0  0  0  0
 19 31  1  0  0  0  0
M  END
>  <Column 1>
Cn1c(=O)n(-c2ccc(S(N)(=O)=O)cc2)c(=O)n1C ZINC000000033762

>  <Total Molweight>
284.295

>  <cLogP>
-1.2882

>  <cLogS>
-2.061

>  <H-Acceptors>
8

>  <H-Donors>
1

>  <Total Surface Area>
187.78

>  <MMFF94 Energy>
-64.05

> <Gold.Version>
5.8.1

> <Gold.Id.Protein>
ID|2FQT|mol2

> <Gold.PLP.Fitness>
56.1062

> <Gold.PLP.PLP>
-36.6983

> <Gold.PLP.part.hbond>
-1.9660

> <Gold.PLP.part.metal>
-2.0000

> <Gold.PLP.part.buried>
0.3760

> <Gold.PLP.part.nonpolar>
-33.9394

> <Gold.PLP.part.repulsive>
0.3620

> <Gold.PLP.ligand.clash>
0.0000

> <Gold.PLP.ligand.torsion>
1.0957

> <Gold.PLP.Chemscore.Hbond>
2.5888

> <Gold.PLP.Chemscore.CHOScore>
0.0000

> <Gold.PLP.Chemscore.Metal>
1.9865

> <Gold.Chemscore.Hbonds>
donor molecule, donor type, donor heavy atom, donor atom, acceptor molecule, acceptor atom, score
      L1  H     4    20       P1   437  0.75
      L1  H     4    21       P1   426  0.88
      P1  H  1223  2650       L1    14  0.96
      P1  M  1222  1222       L1     3  0.99
      P1  M  1222  1222       L1     4  1.00

> <Gold.PLP.Chemscore.Internal.Correction>
1.9138

> <Gold.Protein.RotatedTorsions>
[ 3412  950  949  948 ] final  -21.77 input   60.00 | X-H torsion
[ 3476 1244 1243 1240 ] final  -44.51 input   60.00 | X-H torsion
[ 2649 1223 1224 1225 ] final  155.30 input   60.00 | X-H torsion
[ 4380 1912 1911 1909 ] final   89.49 input   60.00 | X-H torsion
[ 3084  621  620  617 ] final -179.91 input   60.00 | X-H torsion

> <Gold.Protein.ActiveResidues>
 HIS54   GLU57   HIS58   ALA61   PHE62   ILE64   ARG65   ASP75   ILE76   ILE77  
 ASP78   ILE79   SER80   PRO81   ILE118  PRO119  ALA120  ALA121  ASN122  LYS124 
 GLN125  CYS126  GLY127  CO701   VAL4    GLU5    SER6    PHE7    GLU8    LEU9   
 HIS11   ARG20   HIS21   CYS22   GLY23   VAL24   HIS25   LYS35   ARG39   MET82  
 GLY83   CYS84   TYR89  

> <Gold.Protein.RotatedAtoms>
  -21.0186   38.7782  -16.1948 H   0  0  0  0  0  0  0  0  0  0  0  0  # atno 2649 bound_to 1223
  -21.3935   37.2624  -16.7506 H   0  0  0  0  0  0  0  0  0  0  0  0  # atno 2650 bound_to 1223
  -18.3317   27.3660  -13.7891 H   0  0  0  0  0  0  0  0  0  0  0  0  # atno 3084 bound_to 621 
  -28.9139   38.4991  -28.0503 H   0  0  0  0  0  0  0  0  0  0  0  0  # atno 3412 bound_to 950 
  -27.7464   37.6628  -28.8778 H   0  0  0  0  0  0  0  0  0  0  0  0  # atno 3413 bound_to 950 
  -28.1702   39.1909  -29.3600 H   0  0  0  0  0  0  0  0  0  0  0  0  # atno 3414 bound_to 950 
  -24.2278   32.6242  -20.9904 H   0  0  0  0  0  0  0  0  0  0  0  0  # atno 3476 bound_to 1244
  -20.2595   31.8786  -18.9707 H   0  0  0  0  0  0  0  0  0  0  0  0  # atno 4380 bound_to 1912
  -23.8370   31.7716  -19.6606 LP  0  0  0  0  0  0  0  0  0  0  0  0  # atno 4866 bound_to 1244
  -22.9243   31.6503  -21.0093 LP  0  0  0  0  0  0  0  0  0  0  0  0  # atno 4867 bound_to 1244
  -20.2175   38.1473  -17.4859 LP  0  0  0  0  0  0  0  0  0  0  0  0  # atno 4874 bound_to 1223
  -21.2340   30.7304  -19.5871 LP  0  0  0  0  0  0  0  0  0  0  0  0  # atno 4875 bound_to 1912
  -19.9431   31.2536  -20.4394 LP  0  0  0  0  0  0  0  0  0  0  0  0  # atno 4876 bound_to 1912
  -18.4911   28.7105  -12.8863 LP  0  0  0  0  0  0  0  0  0  0  0  0  # atno 4881 bound_to 621 
  -19.7628   28.1388  -13.7364 LP  0  0  0  0  0  0  0  0  0  0  0  0  # atno 4882 bound_to 621 

$$$$
Compound 175|Decoys_protonated|sdf|175|dock8
  -GOLD-   6122416213D 1   1.00000     0.00000

 33 35  0  0  0  0  0  0  0  0  1 V2000
  -20.6845   34.1354  -16.7623 S   0  0  0  0  0  0  0  0  0  0  0  0
  -20.0948   32.9912  -17.4320 O   0  0  0  0  0  0  0  0  0  0  0  0
  -21.4111   35.1094  -17.5551 O   0  0  0  0  0  0  0  0  0  0  0  0
  -21.8256   33.5246  -15.6431 N   0  0  0  0  0  0  0  0  0  0  0  0
  -19.4736   34.9942  -15.8720 C   0  0  0  0  0  0  0  0  0  0  0  0
  -22.9332   32.7702  -16.1510 C   0  0  0  0  0  0  0  0  0  0  0  0
  -18.9255   36.2296  -16.4660 C   0  0  0  0  0  0  0  0  0  0  0  0
  -18.9653   34.5523  -14.7041 C   0  0  0  0  0  0  0  0  0  0  0  0
  -22.7376   31.6932  -17.0190 C   0  0  0  0  0  0  0  0  0  0  0  0
  -24.2387   33.1608  -15.7905 C   0  0  0  0  0  0  0  0  0  0  0  0
  -19.2897   36.6594  -17.5575 O   0  0  0  0  0  0  0  0  0  0  0  0
  -17.9810   36.8934  -15.7312 N   0  0  0  0  0  0  0  0  0  0  0  0
  -18.0018   35.3045  -14.0599 N   0  0  0  0  0  0  0  0  0  0  0  0
  -19.3232   33.2658  -14.0084 C   0  0  0  0  0  0  0  0  0  0  0  0
  -23.8537   31.0193  -17.4699 C   0  0  0  0  0  0  0  0  0  0  0  0
  -25.3525   32.4583  -16.2625 C   0  0  0  0  0  0  0  0  0  0  0  0
  -17.4884   36.4793  -14.5305 C   0  0  0  0  0  0  0  0  0  0  0  0
  -23.8508   29.9492  -18.3094 O   0  0  0  0  0  0  0  0  0  0  0  0
  -25.1249   31.3887  -17.0992 C   0  0  0  0  0  0  0  0  0  0  0  0
  -16.6380   37.1117  -13.9163 O   0  0  0  0  0  0  0  0  0  0  0  0
  -25.2652   29.6923  -18.4305 C   0  0  0  0  0  0  0  0  0  0  0  0
  -26.0794   30.5969  -17.6549 O   0  0  0  0  0  0  0  0  0  0  0  0
  -21.3103   33.0650  -14.8831 H   0  0  0  0  0  0  0  0  0  0  0  0
  -21.7500   31.3937  -17.3514 H   0  0  0  0  0  0  0  0  0  0  0  0
  -24.4002   34.0189  -15.1417 H   0  0  0  0  0  0  0  0  0  0  0  0
  -17.5990   37.7463  -16.1107 H   0  0  0  0  0  0  0  0  0  0  0  0
  -17.6154   34.9956  -13.1729 H   0  0  0  0  0  0  0  0  0  0  0  0
  -19.4632   32.4429  -14.7157 H   0  0  0  0  0  0  0  0  0  0  0  0
  -20.2289   33.3948  -13.4077 H   0  0  0  0  0  0  0  0  0  0  0  0
  -18.5207   32.9444  -13.3343 H   0  0  0  0  0  0  0  0  0  0  0  0
  -26.3604   32.7494  -15.9886 H   0  0  0  0  0  0  0  0  0  0  0  0
  -25.5493   29.7812  -19.4854 H   0  0  0  0  0  0  0  0  0  0  0  0
  -25.4651   28.6676  -18.0970 H   0  0  0  0  0  0  0  0  0  0  0  0
  1  2  2  0  0  0  0
  1  3  2  0  0  0  0
  1  4  1  0  0  0  0
  1  5  1  0  0  0  0
  4  6  1  0  0  0  0
  4 23  1  0  0  0  0
  5  7  1  0  0  0  0
  5  8  2  0  0  0  0
  6  9  2  0  0  0  0
  6 10  1  0  0  0  0
  7 11  2  0  0  0  0
  7 12  1  0  0  0  0
  8 13  1  0  0  0  0
  8 14  1  0  0  0  0
  9 15  1  0  0  0  0
  9 24  1  0  0  0  0
 10 16  2  0  0  0  0
 10 25  1  0  0  0  0
 12 17  1  0  0  0  0
 12 26  1  0  0  0  0
 13 17  1  0  0  0  0
 13 27  1  0  0  0  0
 14 28  1  0  0  0  0
 14 29  1  0  0  0  0
 14 30  1  0  0  0  0
 15 18  1  0  0  0  0
 15 19  2  0  0  0  0
 16 19  1  0  0  0  0
 16 31  1  0  0  0  0
 17 20  2  0  0  0  0
 18 21  1  0  0  0  0
 19 22  1  0  0  0  0
 21 22  1  0  0  0  0
 21 32  1  0  0  0  0
 21 33  1  0  0  0  0
M  END
>  <Column 1>
Cc1[nH]c(=O)[nH]c(=O)c1S(=O)(=O)Nc1ccc2c(c1)OCO2 ZINC000000033806

>  <Total Molweight>
325.3

>  <cLogP>
0.1574

>  <cLogS>
-4.46

>  <H-Acceptors>
9

>  <H-Donors>
3

>  <Total Surface Area>
213.66

>  <MMFF94 Energy>
-142.49

> <Gold.Version>
5.8.1

> <Gold.Id.Protein>
ID|2FQT|mol2

> <Gold.PLP.Fitness>
58.2891

> <Gold.PLP.PLP>
-44.3232

> <Gold.PLP.part.hbond>
-4.8945

> <Gold.PLP.part.metal>
-0.3238

> <Gold.PLP.part.buried>
-5.4296

> <Gold.PLP.part.nonpolar>
-33.8629

> <Gold.PLP.part.repulsive>
0.5608

> <Gold.PLP.ligand.clash>
0.0000

> <Gold.PLP.ligand.torsion>
1.2473

> <Gold.PLP.Chemscore.Hbond>
3.4088

> <Gold.PLP.Chemscore.CHOScore>
0.0000

> <Gold.PLP.Chemscore.Metal>
0.6973

> <Gold.Chemscore.Hbonds>
donor molecule, donor type, donor heavy atom, donor atom, acceptor molecule, acceptor atom, score
      P1  H  1223  2650       L1     3  0.88
      P1  H  1912  4380       L1     2  1.00
      P1  H  1230  2756       L1    11  0.80
      P1  H  1239  3336       L1     3  0.73
      P1  M  1222  1222       L1    22  0.70

> <Gold.PLP.Chemscore.Internal.Correction>
2.0505

> <Gold.Protein.RotatedTorsions>
[ 3412  950  949  948 ] final -164.40 input   60.00 | X-H torsion
[ 3476 1244 1243 1240 ] final -142.31 input   60.00 | X-H torsion
[ 2649 1223 1224 1225 ] final  177.23 input   60.00 | X-H torsion
[ 4380 1912 1911 1909 ] final   77.41 input   60.00 | X-H torsion
[ 3084  621  620  617 ] final  -93.39 input   60.00 | X-H torsion

> <Gold.Protein.ActiveResidues>
 HIS54   GLU57   HIS58   ALA61   PHE62   ILE64   ARG65   ASP75   ILE76   ILE77  
 ASP78   ILE79   SER80   PRO81   ILE118  PRO119  ALA120  ALA121  ASN122  LYS124 
 GLN125  CYS126  GLY127  CO701   VAL4    GLU5    SER6    PHE7    GLU8    LEU9   
 HIS11   ARG20   HIS21   CYS22   GLY23   VAL24   HIS25   LYS35   ARG39   MET82  
 GLY83   CYS84   TYR89  

> <Gold.Protein.RotatedAtoms>
  -21.2644   38.5358  -16.0795 H   0  0  0  0  0  0  0  0  0  0  0  0  # atno 2649 bound_to 1223
  -21.1803   37.1841  -17.0350 H   0  0  0  0  0  0  0  0  0  0  0  0  # atno 2650 bound_to 1223
  -19.5567   27.6995  -13.9760 H   0  0  0  0  0  0  0  0  0  0  0  0  # atno 3084 bound_to 621 
  -27.9190   38.9482  -29.4978 H   0  0  0  0  0  0  0  0  0  0  0  0  # atno 3412 bound_to 950 
  -28.9591   38.8348  -28.2123 H   0  0  0  0  0  0  0  0  0  0  0  0  # atno 3413 bound_to 950 
  -27.9524   37.5698  -28.5780 H   0  0  0  0  0  0  0  0  0  0  0  0  # atno 3414 bound_to 950 
  -24.1053   32.0046  -19.7287 H   0  0  0  0  0  0  0  0  0  0  0  0  # atno 3476 bound_to 1244
  -20.4192   31.8028  -18.8838 H   0  0  0  0  0  0  0  0  0  0  0  0  # atno 4380 bound_to 1912
  -22.8928   31.4909  -20.6847 LP  0  0  0  0  0  0  0  0  0  0  0  0  # atno 4866 bound_to 1244
  -23.9919   32.5550  -21.2558 LP  0  0  0  0  0  0  0  0  0  0  0  0  # atno 4867 bound_to 1244
  -20.1854   38.4633  -17.3194 LP  0  0  0  0  0  0  0  0  0  0  0  0  # atno 4874 bound_to 1223
  -21.1791   30.6666  -19.7667 LP  0  0  0  0  0  0  0  0  0  0  0  0  # atno 4875 bound_to 1912
  -19.8372   31.3938  -20.3474 LP  0  0  0  0  0  0  0  0  0  0  0  0  # atno 4876 bound_to 1912
  -18.0108   27.6619  -13.4692 LP  0  0  0  0  0  0  0  0  0  0  0  0  # atno 4881 bound_to 621 
  -19.0095   28.8516  -12.9653 LP  0  0  0  0  0  0  0  0  0  0  0  0  # atno 4882 bound_to 621 

$$$$
Compound 176|Decoys_protonated|sdf|176|dock1
  -GOLD-   6122416213D 1   1.00000     0.00000

 30 32  0  0  0  0  0  0  0  0  1 V2000
  -19.2377   34.3620  -17.4562 S   0  0  0  0  0  0  0  0  0  0  0  0
  -18.0713   33.8286  -18.1264 O   0  0  0  0  0  0  0  0  0  0  0  0
  -20.0022   35.4694  -17.9886 O   0  0  0  0  0  0  0  0  0  0  0  0
  -20.2415   33.1438  -17.0176 N   0  0  0  0  0  0  0  0  0  0  0  0
  -18.7565   34.7931  -15.8456 C   0  0  0  0  0  0  0  0  0  0  0  0
  -20.2640   33.0082  -15.7169 C   0  0  0  0  0  0  0  0  0  0  0  0
  -19.4058   33.9546  -14.9588 C   0  0  0  0  0  0  0  0  0  0  0  0
  -17.8807   35.7916  -15.4617 C   0  0  0  0  0  0  0  0  0  0  0  0
  -21.0472   32.0380  -15.1387 N   0  0  0  0  0  0  0  0  0  0  0  0
  -19.1866   34.0984  -13.5994 C   0  0  0  0  0  0  0  0  0  0  0  0
  -17.6563   35.9407  -14.0939 C   0  0  0  0  0  0  0  0  0  0  0  0
  -21.8451   31.1535  -15.7875 N   0  0  0  0  0  0  0  0  0  0  0  0
  -18.3045   35.1004  -13.1699 C   0  0  0  0  0  0  0  0  0  0  0  0
  -22.8424   31.6678  -16.4370 C   0  0  0  0  0  0  0  0  0  0  0  0
  -23.8096   30.8452  -17.1983 C   0  0  0  0  0  0  0  0  0  0  0  0
  -24.9738   31.4357  -17.5603 N   0  0  0  0  0  0  0  0  0  0  0  0
  -23.4836   29.5288  -17.5005 C   0  0  0  0  0  0  0  0  0  0  0  0
  -25.8477   30.6766  -18.2536 C   0  0  0  0  0  0  0  0  0  0  0  0
  -24.4084   28.7740  -18.2171 C   0  0  0  0  0  0  0  0  0  0  0  0
  -25.6125   29.3558  -18.6017 C   0  0  0  0  0  0  0  0  0  0  0  0
  -17.3920   36.4280  -16.1920 H   0  0  0  0  0  0  0  0  0  0  0  0
  -20.9849   32.0259  -14.1223 H   0  0  0  0  0  0  0  0  0  0  0  0
  -19.6766   33.4606  -12.8708 H   0  0  0  0  0  0  0  0  0  0  0  0
  -16.9764   36.7109  -13.7355 H   0  0  0  0  0  0  0  0  0  0  0  0
  -18.1195   35.2288  -12.1049 H   0  0  0  0  0  0  0  0  0  0  0  0
  -23.0158   32.7586  -16.4502 H   0  0  0  0  0  0  0  0  0  0  0  0
  -22.5407   29.0912  -17.1930 H   0  0  0  0  0  0  0  0  0  0  0  0
  -26.7733   31.1732  -18.5319 H   0  0  0  0  0  0  0  0  0  0  0  0
  -24.1934   27.7403  -18.4745 H   0  0  0  0  0  0  0  0  0  0  0  0
  -26.3525   28.7929  -19.1608 H   0  0  0  0  0  0  0  0  0  0  0  0
  1  2  2  0  0  0  0
  1  3  2  0  0  0  0
  1  4  1  0  0  0  0
  1  5  1  0  0  0  0
  4  6  2  0  0  0  0
  5  7  2  0  0  0  0
  5  8  1  0  0  0  0
  6  9  1  0  0  0  0
  6  7  1  0  0  0  0
  7 10  1  0  0  0  0
  8 11  2  0  0  0  0
  8 21  1  0  0  0  0
  9 12  1  0  0  0  0
  9 22  1  0  0  0  0
 10 13  2  0  0  0  0
 10 23  1  0  0  0  0
 11 13  1  0  0  0  0
 11 24  1  0  0  0  0
 12 14  2  0  0  0  0
 13 25  1  0  0  0  0
 14 15  1  0  0  0  0
 14 26  1  0  0  0  0
 15 16  2  0  0  0  0
 15 17  1  0  0  0  0
 16 18  1  0  0  0  0
 17 19  2  0  0  0  0
 17 27  1  0  0  0  0
 18 20  2  0  0  0  0
 18 28  1  0  0  0  0
 19 20  1  0  0  0  0
 19 29  1  0  0  0  0
 20 30  1  0  0  0  0
M  END
>  <Column 1>
O=S1(=O)N=C(N/N=C/c2ccccn2)c2ccccc21 ZINC000000033995

>  <Total Molweight>
286.314

>  <cLogP>
1.8926

>  <cLogS>
-2.956

>  <H-Acceptors>
6

>  <H-Donors>
1

>  <Total Surface Area>
206.05

>  <MMFF94 Energy>
67.567

> <Gold.Version>
5.8.1

> <Gold.Id.Protein>
ID|2FQT|mol2

> <Gold.PLP.Fitness>
60.5810

> <Gold.PLP.PLP>
-49.4143

> <Gold.PLP.part.hbond>
-4.3923

> <Gold.PLP.part.metal>
0.0000

> <Gold.PLP.part.buried>
-7.0196

> <Gold.PLP.part.nonpolar>
-38.9259

> <Gold.PLP.part.repulsive>
0.2827

> <Gold.PLP.ligand.clash>
0.0000

> <Gold.PLP.ligand.torsion>
0.3608

> <Gold.PLP.Chemscore.Hbond>
3.0908

> <Gold.PLP.Chemscore.CHOScore>
0.8716

> <Gold.PLP.Chemscore.Metal>
0.0000

> <Gold.Chemscore.Hbonds>
donor molecule, donor type, donor heavy atom, donor atom, acceptor molecule, acceptor atom, score
      P1  H  1244  3476       L1    16  0.04
      P1  H  1223  2650       L1     3  1.00
      P1  H  1912  4380       L1     4  0.49
      P1  H  1239  3336       L1     3  1.00
      P1  H  1466  3954       L1     2  0.57
      L1  C    18    28       P1   437  0.87

> <Gold.PLP.Chemscore.Internal.Correction>
0.0009

> <Gold.Protein.RotatedTorsions>
[ 3412  950  949  948 ] final   18.71 input   60.00 | X-H torsion
[ 3476 1244 1243 1240 ] final -145.25 input   60.00 | X-H torsion
[ 2649 1223 1224 1225 ] final -158.29 input   60.00 | X-H torsion
[ 4380 1912 1911 1909 ] final   80.75 input   60.00 | X-H torsion
[ 3084  621  620  617 ] final  -94.61 input   60.00 | X-H torsion

> <Gold.Protein.ActiveResidues>
 HIS54   GLU57   HIS58   ALA61   PHE62   ILE64   ARG65   ASP75   ILE76   ILE77  
 ASP78   ILE79   SER80   PRO81   ILE118  PRO119  ALA120  ALA121  ASN122  LYS124 
 GLN125  CYS126  GLY127  CO701   VAL4    GLU5    SER6    PHE7    GLU8    LEU9   
 HIS11   ARG20   HIS21   CYS22   GLY23   VAL24   HIS25   LYS35   ARG39   MET82  
 GLY83   CYS84   TYR89  

> <Gold.Protein.RotatedAtoms>
  -21.4704   38.1862  -16.0763 H   0  0  0  0  0  0  0  0  0  0  0  0  # atno 2649 bound_to 1223
  -20.8911   37.2467  -17.3127 H   0  0  0  0  0  0  0  0  0  0  0  0  # atno 2650 bound_to 1223
  -19.5443   27.6850  -13.9820 H   0  0  0  0  0  0  0  0  0  0  0  0  # atno 3084 bound_to 621 
  -28.6026   37.9148  -28.0401 H   0  0  0  0  0  0  0  0  0  0  0  0  # atno 3412 bound_to 950 
  -27.5946   38.1108  -29.3412 H   0  0  0  0  0  0  0  0  0  0  0  0  # atno 3413 bound_to 950 
  -28.6333   39.3272  -28.9069 H   0  0  0  0  0  0  0  0  0  0  0  0  # atno 3414 bound_to 950 
  -24.0723   31.9733  -19.7130 H   0  0  0  0  0  0  0  0  0  0  0  0  # atno 3476 bound_to 1244
  -20.3744   31.8263  -18.9046 H   0  0  0  0  0  0  0  0  0  0  0  0  # atno 4380 bound_to 1912
  -22.8903   31.5079  -20.7300 LP  0  0  0  0  0  0  0  0  0  0  0  0  # atno 4866 bound_to 1244
  -24.0276   32.5695  -21.2264 LP  0  0  0  0  0  0  0  0  0  0  0  0  # atno 4867 bound_to 1244
  -20.2673   38.7461  -17.0489 LP  0  0  0  0  0  0  0  0  0  0  0  0  # atno 4874 bound_to 1223
  -21.1976   30.6816  -19.7170 LP  0  0  0  0  0  0  0  0  0  0  0  0  # atno 4875 bound_to 1912
  -19.8639   31.3551  -20.3761 LP  0  0  0  0  0  0  0  0  0  0  0  0  # atno 4876 bound_to 1912
  -18.0042   27.6762  -13.4567 LP  0  0  0  0  0  0  0  0  0  0  0  0  # atno 4881 bound_to 621 
  -19.0286   28.8519  -12.9718 LP  0  0  0  0  0  0  0  0  0  0  0  0  # atno 4882 bound_to 621 

$$$$
Compound 177|Decoys_protonated|sdf|177|dock9
  -GOLD-   6122416213D 1   1.00000     0.00000

 38 39  0  0  0  0  0  0  0  0  1 V2000
  -20.5651   32.4862  -16.5996 S   0  0  0  0  0  0  0  0  0  0  0  0
  -20.4444   31.9038  -15.0436 C   0  0  0  0  0  0  0  0  0  0  0  0
  -19.8718   32.5228  -13.9566 N   0  0  0  0  0  0  0  0  0  0  0  0
  -20.9577   30.6726  -14.7584 N   0  0  0  0  0  0  0  0  0  0  0  0
  -19.3066   33.7592  -14.0506 N   0  0  0  0  0  0  0  0  0  0  0  0
  -19.4062   34.5022  -12.9928 C   0  0  0  0  0  0  0  0  0  0  0  0
  -18.8398   35.8689  -12.9478 C   0  0  0  0  0  0  0  0  0  0  0  0
  -17.9601   36.3082  -13.9457 C   0  0  0  0  0  0  0  0  0  0  0  0
  -19.1948   36.7230  -11.9009 C   0  0  0  0  0  0  0  0  0  0  0  0
  -17.6664   35.4201  -14.9491 O   0  0  0  0  0  0  0  0  0  0  0  0
  -17.4448   37.6119  -13.8628 C   0  0  0  0  0  0  0  0  0  0  0  0
  -18.6705   38.0173  -11.8416 C   0  0  0  0  0  0  0  0  0  0  0  0
  -16.9640   35.9152  -16.0829 C   0  0  0  0  0  0  0  0  0  0  0  0
  -17.7778   38.4894  -12.8119 C   0  0  0  0  0  0  0  0  0  0  0  0
  -17.2454   39.7752  -12.7756 N   0  0  0  0  0  0  0  0  0  0  0  0
  -17.0475   40.4614  -11.4853 C   0  0  0  0  0  0  0  0  0  0  0  0
  -16.2505   40.1410  -13.8043 C   0  0  0  0  0  0  0  0  0  0  0  0
  -16.8858   41.9737  -11.7036 C   0  0  0  0  0  0  0  0  0  0  0  0
  -16.1206   41.6690  -13.9049 C   0  0  0  0  0  0  0  0  0  0  0  0
  -15.8293   42.2648  -12.6317 O   0  0  0  0  0  0  0  0  0  0  0  0
  -19.8666   32.0525  -13.0612 H   0  0  0  0  0  0  0  0  0  0  0  0
  -21.3958   30.1552  -15.5107 H   0  0  0  0  0  0  0  0  0  0  0  0
  -20.9249   30.2503  -13.8438 H   0  0  0  0  0  0  0  0  0  0  0  0
  -19.9200   34.1370  -12.0866 H   0  0  0  0  0  0  0  0  0  0  0  0
  -19.8786   36.3892  -11.1225 H   0  0  0  0  0  0  0  0  0  0  0  0
  -16.7915   37.9899  -14.6416 H   0  0  0  0  0  0  0  0  0  0  0  0
  -18.9634   38.6395  -11.0006 H   0  0  0  0  0  0  0  0  0  0  0  0
  -17.5485   36.6786  -16.6069 H   0  0  0  0  0  0  0  0  0  0  0  0
  -16.8150   35.0795  -16.7735 H   0  0  0  0  0  0  0  0  0  0  0  0
  -15.9758   36.2933  -15.8012 H   0  0  0  0  0  0  0  0  0  0  0  0
  -16.1438   40.0670  -11.0045 H   0  0  0  0  0  0  0  0  0  0  0  0
  -17.9024   40.3002  -10.8181 H   0  0  0  0  0  0  0  0  0  0  0  0
  -15.2826   39.7116  -13.5161 H   0  0  0  0  0  0  0  0  0  0  0  0
  -16.5071   39.7527  -14.7952 H   0  0  0  0  0  0  0  0  0  0  0  0
  -16.6380   42.4608  -10.7549 H   0  0  0  0  0  0  0  0  0  0  0  0
  -17.8175   42.4191  -12.0731 H   0  0  0  0  0  0  0  0  0  0  0  0
  -15.3035   41.9270  -14.5861 H   0  0  0  0  0  0  0  0  0  0  0  0
  -17.0398   42.1145  -14.3044 H   0  0  0  0  0  0  0  0  0  0  0  0
  1  2  2  0  0  0  0
  2  3  1  0  0  0  0
  2  4  1  0  0  0  0
  3  5  1  0  0  0  0
  3 21  1  0  0  0  0
  4 22  1  0  0  0  0
  4 23  1  0  0  0  0
  5  6  2  0  0  0  0
  6  7  1  0  0  0  0
  6 24  1  0  0  0  0
  7  8  2  0  0  0  0
  7  9  1  0  0  0  0
  8 10  1  0  0  0  0
  8 11  1  0  0  0  0
  9 12  2  0  0  0  0
  9 25  1  0  0  0  0
 10 13  1  0  0  0  0
 11 14  2  0  0  0  0
 11 26  1  0  0  0  0
 12 14  1  0  0  0  0
 12 27  1  0  0  0  0
 13 28  1  0  0  0  0
 13 29  1  0  0  0  0
 13 30  1  0  0  0  0
 14 15  1  0  0  0  0
 15 16  1  0  0  0  0
 15 17  1  0  0  0  0
 16 18  1  0  0  0  0
 16 31  1  0  0  0  0
 16 32  1  0  0  0  0
 17 19  1  0  0  0  0
 17 33  1  0  0  0  0
 17 34  1  0  0  0  0
 18 20  1  0  0  0  0
 18 35  1  0  0  0  0
 18 36  1  0  0  0  0
 19 20  1  0  0  0  0
 19 37  1  0  0  0  0
 19 38  1  0  0  0  0
M  END
>  <Column 1>
COc1cc(N2CCOCC2)ccc1/C=N/NC(N)=S ZINC000000034068

>  <Total Molweight>
294.378

>  <cLogP>
1.131

>  <cLogS>
-3.019

>  <H-Acceptors>
6

>  <H-Donors>
2

>  <Total Surface Area>
234.81

>  <MMFF94 Energy>
88.807

> <Gold.Version>
5.8.1

> <Gold.Id.Protein>
ID|2FQT|mol2

> <Gold.PLP.Fitness>
53.6480

> <Gold.PLP.PLP>
-47.6191

> <Gold.PLP.part.hbond>
-2.4383

> <Gold.PLP.part.metal>
0.0000

> <Gold.PLP.part.buried>
-7.0379

> <Gold.PLP.part.nonpolar>
-38.1802

> <Gold.PLP.part.repulsive>
0.3876

> <Gold.PLP.ligand.clash>
0.0000

> <Gold.PLP.ligand.torsion>
0.4237

> <Gold.PLP.Chemscore.Hbond>
2.2051

> <Gold.PLP.Chemscore.CHOScore>
0.0000

> <Gold.PLP.Chemscore.Metal>
0.0000

> <Gold.Chemscore.Hbonds>
donor molecule, donor type, donor heavy atom, donor atom, acceptor molecule, acceptor atom, score
      L1  H     3    21       P1   611  0.96
      L1  H     4    23       P1   611  0.91
      P1  H  1912  4380       L1     1  0.34

> <Gold.PLP.Chemscore.Internal.Correction>
0.2612

> <Gold.Protein.RotatedTorsions>
[ 3412  950  949  948 ] final   89.02 input   60.00 | X-H torsion
[ 3476 1244 1243 1240 ] final  -33.08 input   60.00 | X-H torsion
[ 2649 1223 1224 1225 ] final   94.52 input   60.00 | X-H torsion
[ 4380 1912 1911 1909 ] final   67.06 input   60.00 | X-H torsion
[ 3084  621  620  617 ] final  163.85 input   60.00 | X-H torsion

> <Gold.Protein.ActiveResidues>
 HIS54   GLU57   HIS58   ALA61   PHE62   ILE64   ARG65   ASP75   ILE76   ILE77  
 ASP78   ILE79   SER80   PRO81   ILE118  PRO119  ALA120  ALA121  ASN122  LYS124 
 GLN125  CYS126  GLY127  CO701   VAL4    GLU5    SER6    PHE7    GLU8    LEU9   
 HIS11   ARG20   HIS21   CYS22   GLY23   VAL24   HIS25   LYS35   ARG39   MET82  
 GLY83   CYS84   TYR89  

> <Gold.Protein.RotatedAtoms>
  -20.3443   38.8574  -16.8852 H   0  0  0  0  0  0  0  0  0  0  0  0  # atno 2649 bound_to 1223
  -21.5370   37.9903  -16.1283 H   0  0  0  0  0  0  0  0  0  0  0  0  # atno 2650 bound_to 1223
  -18.1489   27.4858  -13.6401 H   0  0  0  0  0  0  0  0  0  0  0  0  # atno 3084 bound_to 621 
  -27.8219   37.6091  -28.7552 H   0  0  0  0  0  0  0  0  0  0  0  0  # atno 3412 bound_to 950 
  -28.0637   39.1041  -29.4288 H   0  0  0  0  0  0  0  0  0  0  0  0  # atno 3413 bound_to 950 
  -28.9449   38.6396  -28.1040 H   0  0  0  0  0  0  0  0  0  0  0  0  # atno 3414 bound_to 950 
  -24.1129   32.5984  -21.1349 H   0  0  0  0  0  0  0  0  0  0  0  0  # atno 3476 bound_to 1244
  -20.5583   31.7196  -18.8367 H   0  0  0  0  0  0  0  0  0  0  0  0  # atno 4380 bound_to 1912
  -23.9833   31.8881  -19.6766 LP  0  0  0  0  0  0  0  0  0  0  0  0  # atno 4866 bound_to 1244
  -22.8937   31.5597  -20.8478 LP  0  0  0  0  0  0  0  0  0  0  0  0  # atno 4867 bound_to 1244
  -20.7405   37.3523  -17.4188 LP  0  0  0  0  0  0  0  0  0  0  0  0  # atno 4874 bound_to 1223
  -21.1073   30.6337  -19.9172 LP  0  0  0  0  0  0  0  0  0  0  0  0  # atno 4875 bound_to 1912
  -19.7690   31.5104  -20.2443 LP  0  0  0  0  0  0  0  0  0  0  0  0  # atno 4876 bound_to 1912
  -18.7376   28.8103  -12.9005 LP  0  0  0  0  0  0  0  0  0  0  0  0  # atno 4881 bound_to 621 
  -19.7004   27.9184  -13.8723 LP  0  0  0  0  0  0  0  0  0  0  0  0  # atno 4882 bound_to 621 

$$$$
Compound 178|Decoys_protonated|sdf|178|dock1
  -GOLD-   6122416213D 1   1.00000     0.00000

 33 35  0  0  0  0  0  0  0  0  1 V2000
  -17.3842   37.2576  -17.5823 S   0  0  0  0  0  0  0  0  0  0  0  0
  -18.2640   38.3710  -17.8497 O   0  0  0  0  0  0  0  0  0  0  0  0
  -16.3473   36.8505  -18.5016 O   0  0  0  0  0  0  0  0  0  0  0  0
  -16.6045   37.6174  -16.1400 N   0  0  0  0  0  0  0  0  0  0  0  0
  -18.3507   35.8464  -17.1329 C   0  0  0  0  0  0  0  0  0  0  0  0
  -19.0357   35.1365  -18.1195 C   0  0  0  0  0  0  0  0  0  0  0  0
  -18.3856   35.4232  -15.8034 C   0  0  0  0  0  0  0  0  0  0  0  0
  -19.7787   34.0061  -17.7645 C   0  0  0  0  0  0  0  0  0  0  0  0
  -19.1307   34.2904  -15.4579 C   0  0  0  0  0  0  0  0  0  0  0  0
  -19.8396   33.5664  -16.4309 C   0  0  0  0  0  0  0  0  0  0  0  0
  -20.6147   32.3837  -16.0597 C   0  0  0  0  0  0  0  0  0  0  0  0
  -21.6716   32.0747  -16.8692 O   0  0  0  0  0  0  0  0  0  0  0  0
  -20.5394   31.4548  -15.0398 C   0  0  0  0  0  0  0  0  0  0  0  0
  -22.2708   30.9532  -16.3728 C   0  0  0  0  0  0  0  0  0  0  0  0
  -21.6010   30.5367  -15.2407 C   0  0  0  0  0  0  0  0  0  0  0  0
  -23.4213   30.4122  -17.0483 C   0  0  0  0  0  0  0  0  0  0  0  0
  -24.1573   31.1560  -17.8052 N   0  0  0  0  0  0  0  0  0  0  0  0
  -25.2308   30.5791  -18.4126 N   0  0  0  0  0  0  0  0  0  0  0  0
  -25.9620   30.9134  -19.5251 C   0  0  0  0  0  0  0  0  0  0  0  0
  -25.8300   29.4313  -17.9600 C   0  0  0  0  0  0  0  0  0  0  0  0
  -26.9222   30.0384  -19.7269 N   0  0  0  0  0  0  0  0  0  0  0  0
  -26.8380   29.0967  -18.7322 N   0  0  0  0  0  0  0  0  0  0  0  0
  -15.8427   38.2739  -16.3134 H   0  0  0  0  0  0  0  0  0  0  0  0
  -16.3085   36.7550  -15.6822 H   0  0  0  0  0  0  0  0  0  0  0  0
  -18.9982   35.4500  -19.1604 H   0  0  0  0  0  0  0  0  0  0  0  0
  -17.8393   35.9633  -15.0331 H   0  0  0  0  0  0  0  0  0  0  0  0
  -20.3100   33.4646  -18.5461 H   0  0  0  0  0  0  0  0  0  0  0  0
  -19.1462   33.9814  -14.4154 H   0  0  0  0  0  0  0  0  0  0  0  0
  -19.8073   31.4359  -14.2449 H   0  0  0  0  0  0  0  0  0  0  0  0
  -21.8435   29.6773  -14.6309 H   0  0  0  0  0  0  0  0  0  0  0  0
  -23.6094   29.3408  -16.8655 H   0  0  0  0  0  0  0  0  0  0  0  0
  -25.7745   31.7737  -20.1467 H   0  0  0  0  0  0  0  0  0  0  0  0
  -25.4858   28.9060  -17.0824 H   0  0  0  0  0  0  0  0  0  0  0  0
  1  2  2  0  0  0  0
  1  3  2  0  0  0  0
  1  4  1  0  0  0  0
  1  5  1  0  0  0  0
  4 23  1  0  0  0  0
  4 24  1  0  0  0  0
  5  6  2  0  0  0  0
  5  7  1  0  0  0  0
  6  8  1  0  0  0  0
  6 25  1  0  0  0  0
  7  9  2  0  0  0  0
  7 26  1  0  0  0  0
  8 10  2  0  0  0  0
  8 27  1  0  0  0  0
  9 10  1  0  0  0  0
  9 28  1  0  0  0  0
 10 11  1  0  0  0  0
 11 12  1  0  0  0  0
 11 13  2  0  0  0  0
 12 14  1  0  0  0  0
 13 15  1  0  0  0  0
 13 29  1  0  0  0  0
 14 16  1  0  0  0  0
 14 15  2  0  0  0  0
 15 30  1  0  0  0  0
 16 17  2  0  0  0  0
 16 31  1  0  0  0  0
 17 18  1  0  0  0  0
 18 19  1  0  0  0  0
 18 20  1  0  0  0  0
 19 21  2  0  0  0  0
 19 32  1  0  0  0  0
 20 22  2  0  0  0  0
 20 33  1  0  0  0  0
 21 22  1  0  0  0  0
M  END
>  <Column 1>
NS(=O)(=O)c1ccc(-c2ccc(/C=N/n3cnnc3)o2)cc1 ZINC000000034100

>  <Total Molweight>
317.328

>  <cLogP>
0.9312

>  <cLogS>
-5.669

>  <H-Acceptors>
8

>  <H-Donors>
1

>  <Total Surface Area>
231.05

>  <MMFF94 Energy>
-25.442

> <Gold.Version>
5.8.1

> <Gold.Id.Protein>
ID|2FQT|mol2

> <Gold.PLP.Fitness>
73.5272

> <Gold.PLP.PLP>
-46.8860

> <Gold.PLP.part.hbond>
-4.7959

> <Gold.PLP.part.metal>
-1.8754

> <Gold.PLP.part.buried>
-1.7078

> <Gold.PLP.part.nonpolar>
-40.0543

> <Gold.PLP.part.repulsive>
0.2533

> <Gold.PLP.ligand.clash>
0.0000

> <Gold.PLP.ligand.torsion>
1.8063

> <Gold.PLP.Chemscore.Hbond>
3.7475

> <Gold.PLP.Chemscore.CHOScore>
1.6827

> <Gold.PLP.Chemscore.Metal>
2.0000

> <Gold.Chemscore.Hbonds>
donor molecule, donor type, donor heavy atom, donor atom, acceptor molecule, acceptor atom, score
      P1  H   966  3428       L1    21  1.00
      P1  H  1223  2650       L1     2  1.00
      P1  H  1912  4380       L1    12  0.75
      P1  H  1230  2756       L1     2  1.00
      L1  C    19    32       P1  1244  0.68
      L1  C    20    33       P1   426  1.00
      P1  M  1222  1222       L1    21  1.00
      P1  M  1222  1222       L1    22  1.00

> <Gold.PLP.Chemscore.Internal.Correction>
1.9633

> <Gold.Protein.RotatedTorsions>
[ 3412  950  949  948 ] final   -6.29 input   60.00 | X-H torsion
[ 3476 1244 1243 1240 ] final   48.15 input   60.00 | X-H torsion
[ 2649 1223 1224 1225 ] final  -79.48 input   60.00 | X-H torsion
[ 4380 1912 1911 1909 ] final   45.56 input   60.00 | X-H torsion
[ 3084  621  620  617 ] final -150.77 input   60.00 | X-H torsion

> <Gold.Protein.ActiveResidues>
 HIS54   GLU57   HIS58   ALA61   PHE62   ILE64   ARG65   ASP75   ILE76   ILE77  
 ASP78   ILE79   SER80   PRO81   ILE118  PRO119  ALA120  ALA121  ASN122  LYS124 
 GLN125  CYS126  GLY127  CO701   VAL4    GLU5    SER6    PHE7    GLU8    LEU9   
 HIS11   ARG20   HIS21   CYS22   GLY23   VAL24   HIS25   LYS35   ARG39   MET82  
 GLY83   CYS84   TYR89  

> <Gold.Protein.RotatedAtoms>
  -21.3486   37.2326  -16.8190 H   0  0  0  0  0  0  0  0  0  0  0  0  # atno 2649 bound_to 1223
  -20.1873   38.2258  -17.4610 H   0  0  0  0  0  0  0  0  0  0  0  0  # atno 2650 bound_to 1223
  -18.7538   27.2955  -13.9861 H   0  0  0  0  0  0  0  0  0  0  0  0  # atno 3084 bound_to 621 
  -28.8255   38.2619  -28.0018 H   0  0  0  0  0  0  0  0  0  0  0  0  # atno 3412 bound_to 950 
  -27.6510   37.7979  -29.0754 H   0  0  0  0  0  0  0  0  0  0  0  0  # atno 3413 bound_to 950 
  -28.3539   39.2929  -29.2109 H   0  0  0  0  0  0  0  0  0  0  0  0  # atno 3414 bound_to 950 
  -23.1147   31.9205  -21.3061 H   0  0  0  0  0  0  0  0  0  0  0  0  # atno 3476 bound_to 1244
  -20.8339   31.5053  -18.8255 H   0  0  0  0  0  0  0  0  0  0  0  0  # atno 4380 bound_to 1912
  -24.4117   32.5907  -20.5874 LP  0  0  0  0  0  0  0  0  0  0  0  0  # atno 4866 bound_to 1244
  -23.4707   31.5399  -19.7646 LP  0  0  0  0  0  0  0  0  0  0  0  0  # atno 4867 bound_to 1244
  -21.0807   38.7210  -16.1712 LP  0  0  0  0  0  0  0  0  0  0  0  0  # atno 4874 bound_to 1223
  -20.8961   30.6341  -20.1985 LP  0  0  0  0  0  0  0  0  0  0  0  0  # atno 4875 bound_to 1912
  -19.7026   31.7258  -19.9742 LP  0  0  0  0  0  0  0  0  0  0  0  0  # atno 4876 bound_to 1912
  -18.1342   28.4111  -12.9764 LP  0  0  0  0  0  0  0  0  0  0  0  0  # atno 4881 bound_to 621 
  -19.6946   28.5093  -13.4479 LP  0  0  0  0  0  0  0  0  0  0  0  0  # atno 4882 bound_to 621 

$$$$
Compound 179|Decoys_protonated|sdf|179|dock2
  -GOLD-   6122416213D 1   1.00000     0.00000

 34 36  0  0  0  0  0  0  0  0  1 V2000
  -16.4248   40.9094  -11.6527 S   0  0  0  0  0  0  0  0  0  0  0  0
  -16.9048   41.1189  -10.3069 O   0  0  0  0  0  0  0  0  0  0  0  0
  -16.5097   41.9269  -12.6740 O   0  0  0  0  0  0  0  0  0  0  0  0
  -14.7950   40.5303  -11.5122 N   0  0  0  0  0  0  0  0  0  0  0  0
  -17.0943   39.3959  -12.2788 C   0  0  0  0  0  0  0  0  0  0  0  0
  -16.5049   38.7959  -13.3987 C   0  0  0  0  0  0  0  0  0  0  0  0
  -18.1815   38.7989  -11.6282 C   0  0  0  0  0  0  0  0  0  0  0  0
  -17.0269   37.6012  -13.8934 C   0  0  0  0  0  0  0  0  0  0  0  0
  -18.7060   37.6035  -12.1196 C   0  0  0  0  0  0  0  0  0  0  0  0
  -18.1302   37.0247  -13.2551 C   0  0  0  0  0  0  0  0  0  0  0  0
  -18.6713   35.8283  -13.7640 N   0  0  0  0  0  0  0  0  0  0  0  0
  -18.4671   35.2729  -15.0203 C   0  0  0  0  0  0  0  0  0  0  0  0
  -19.5052   35.0067  -13.0373 C   0  0  0  0  0  0  0  0  0  0  0  0
  -19.1638   34.0706  -15.0423 C   0  0  0  0  0  0  0  0  0  0  0  0
  -17.6983   35.8243  -16.1141 C   0  0  0  0  0  0  0  0  0  0  0  0
  -19.8176   33.9080  -13.8011 C   0  0  0  0  0  0  0  0  0  0  0  0
  -17.3662   35.1041  -17.1293 N   0  0  0  0  0  0  0  0  0  0  0  0
  -16.6401   35.6850  -18.1217 N   0  0  0  0  0  0  0  0  0  0  0  0
  -16.2462   36.9783  -18.3540 C   0  0  0  0  0  0  0  0  0  0  0  0
  -16.1240   34.9876  -19.1839 C   0  0  0  0  0  0  0  0  0  0  0  0
  -15.5500   37.0548  -19.4669 N   0  0  0  0  0  0  0  0  0  0  0  0
  -15.4726   35.7895  -19.9942 N   0  0  0  0  0  0  0  0  0  0  0  0
  -14.6511   39.5400  -11.7137 H   0  0  0  0  0  0  0  0  0  0  0  0
  -14.4518   40.8148  -10.5942 H   0  0  0  0  0  0  0  0  0  0  0  0
  -15.6491   39.2550  -13.8888 H   0  0  0  0  0  0  0  0  0  0  0  0
  -18.6248   39.2607  -10.7487 H   0  0  0  0  0  0  0  0  0  0  0  0
  -16.5804   37.1367  -14.7690 H   0  0  0  0  0  0  0  0  0  0  0  0
  -19.5590   37.1432  -11.6270 H   0  0  0  0  0  0  0  0  0  0  0  0
  -19.7928   35.2708  -12.0275 H   0  0  0  0  0  0  0  0  0  0  0  0
  -19.2089   33.3834  -15.8787 H   0  0  0  0  0  0  0  0  0  0  0  0
  -17.4183   36.8862  -16.0008 H   0  0  0  0  0  0  0  0  0  0  0  0
  -20.4484   33.0823  -13.4960 H   0  0  0  0  0  0  0  0  0  0  0  0
  -16.4768   37.8135  -17.7127 H   0  0  0  0  0  0  0  0  0  0  0  0
  -16.2606   33.9230  -19.2977 H   0  0  0  0  0  0  0  0  0  0  0  0
  1  2  2  0  0  0  0
  1  3  2  0  0  0  0
  1  4  1  0  0  0  0
  1  5  1  0  0  0  0
  4 23  1  0  0  0  0
  4 24  1  0  0  0  0
  5  6  2  0  0  0  0
  5  7  1  0  0  0  0
  6  8  1  0  0  0  0
  6 25  1  0  0  0  0
  7  9  2  0  0  0  0
  7 26  1  0  0  0  0
  8 10  2  0  0  0  0
  8 27  1  0  0  0  0
  9 10  1  0  0  0  0
  9 28  1  0  0  0  0
 10 11  1  0  0  0  0
 11 12  1  0  0  0  0
 11 13  1  0  0  0  0
 12 14  2  0  0  0  0
 12 15  1  0  0  0  0
 13 16  2  0  0  0  0
 13 29  1  0  0  0  0
 14 16  1  0  0  0  0
 14 30  1  0  0  0  0
 15 17  2  0  0  0  0
 15 31  1  0  0  0  0
 16 32  1  0  0  0  0
 17 18  1  0  0  0  0
 18 19  1  0  0  0  0
 18 20  1  0  0  0  0
 19 21  2  0  0  0  0
 19 33  1  0  0  0  0
 20 22  2  0  0  0  0
 20 34  1  0  0  0  0
 21 22  1  0  0  0  0
M  END
>  <Column 1>
NS(=O)(=O)c1ccc(-n2cccc2/C=N/n2cnnc2)cc1 ZINC000000034102

>  <Total Molweight>
316.344

>  <cLogP>
0.2312

>  <cLogS>
-6.546

>  <H-Acceptors>
8

>  <H-Donors>
1

>  <Total Surface Area>
230.56

>  <MMFF94 Energy>
-25.679

> <Gold.Version>
5.8.1

> <Gold.Id.Protein>
ID|2FQT|mol2

> <Gold.PLP.Fitness>
53.0203

> <Gold.PLP.PLP>
-49.3489

> <Gold.PLP.part.hbond>
-2.7732

> <Gold.PLP.part.metal>
0.0000

> <Gold.PLP.part.buried>
-6.8842

> <Gold.PLP.part.nonpolar>
-41.8849

> <Gold.PLP.part.repulsive>
1.4252

> <Gold.PLP.ligand.clash>
2.5572

> <Gold.PLP.ligand.torsion>
1.2686

> <Gold.PLP.Chemscore.Hbond>
2.0000

> <Gold.PLP.Chemscore.CHOScore>
0.0000

> <Gold.PLP.Chemscore.Metal>
0.0000

> <Gold.Chemscore.Hbonds>
donor molecule, donor type, donor heavy atom, donor atom, acceptor molecule, acceptor atom, score
      L1  H     4    23       P1   587  1.00
      P1  H  1466  3954       L1    17  1.00

> <Gold.PLP.Chemscore.Internal.Correction>
2.7658

> <Gold.Protein.RotatedTorsions>
[ 3412  950  949  948 ] final  -83.53 input   60.00 | X-H torsion
[ 3476 1244 1243 1240 ] final  -83.18 input   60.00 | X-H torsion
[ 2649 1223 1224 1225 ] final -102.95 input   60.00 | X-H torsion
[ 4380 1912 1911 1909 ] final  110.21 input   60.00 | X-H torsion
[ 3084  621  620  617 ] final -128.51 input   60.00 | X-H torsion

> <Gold.Protein.ActiveResidues>
 HIS54   GLU57   HIS58   ALA61   PHE62   ILE64   ARG65   ASP75   ILE76   ILE77  
 ASP78   ILE79   SER80   PRO81   ILE118  PRO119  ALA120  ALA121  ASN122  LYS124 
 GLN125  CYS126  GLY127  CO701   VAL4    GLU5    SER6    PHE7    GLU8    LEU9   
 HIS11   ARG20   HIS21   CYS22   GLY23   VAL24   HIS25   LYS35   ARG39   MET82  
 GLY83   CYS84   TYR89  

> <Gold.Protein.RotatedAtoms>
  -21.5145   37.4168  -16.5191 H   0  0  0  0  0  0  0  0  0  0  0  0  # atno 2649 bound_to 1223
  -20.3056   37.8683  -17.5592 H   0  0  0  0  0  0  0  0  0  0  0  0  # atno 2650 bound_to 1223
  -19.1006   27.3744  -14.0501 H   0  0  0  0  0  0  0  0  0  0  0  0  # atno 3084 bound_to 621 
  -28.7938   39.2510  -28.6710 H   0  0  0  0  0  0  0  0  0  0  0  0  # atno 3412 bound_to 950 
  -28.4043   37.7262  -28.1509 H   0  0  0  0  0  0  0  0  0  0  0  0  # atno 3413 bound_to 950 
  -27.6325   38.3756  -29.4662 H   0  0  0  0  0  0  0  0  0  0  0  0  # atno 3414 bound_to 950 
  -24.4310   32.5347  -20.4115 H   0  0  0  0  0  0  0  0  0  0  0  0  # atno 3476 bound_to 1244
  -20.0117   31.9465  -19.1885 H   0  0  0  0  0  0  0  0  0  0  0  0  # atno 4380 bound_to 1912
  -23.3270   31.4729  -19.8622 LP  0  0  0  0  0  0  0  0  0  0  0  0  # atno 4866 bound_to 1244
  -23.2297   32.0391  -21.3908 LP  0  0  0  0  0  0  0  0  0  0  0  0  # atno 4867 bound_to 1244
  -20.8007   38.8917  -16.3698 LP  0  0  0  0  0  0  0  0  0  0  0  0  # atno 4874 bound_to 1223
  -21.2498   30.8955  -19.2912 LP  0  0  0  0  0  0  0  0  0  0  0  0  # atno 4875 bound_to 1912
  -20.1770   31.0201  -20.5160 LP  0  0  0  0  0  0  0  0  0  0  0  0  # atno 4876 bound_to 1912
  -17.9823   28.1195  -13.1322 LP  0  0  0  0  0  0  0  0  0  0  0  0  # atno 4881 bound_to 621 
  -19.4973   28.7214  -13.2277 LP  0  0  0  0  0  0  0  0  0  0  0  0  # atno 4882 bound_to 621 

$$$$
Compound 180|Decoys_protonated|sdf|180|dock2
  -GOLD-   6122416213D 1   1.00000     0.00000

 31 32  0  0  0  0  0  0  0  0  1 V2000
  -17.6951   34.6045  -17.8034 O   0  0  0  0  0  0  0  0  0  0  0  0
  -18.9034   34.2148  -17.2640 C   0  0  0  0  0  0  0  0  0  0  0  0
  -17.5178   34.1857  -19.1497 C   0  0  0  0  0  0  0  0  0  0  0  0
  -19.7957   35.1873  -17.1739 N   0  0  0  0  0  0  0  0  0  0  0  0
  -19.0827   32.9514  -16.8900 N   0  0  0  0  0  0  0  0  0  0  0  0
  -20.9506   34.7980  -16.6545 C   0  0  0  0  0  0  0  0  0  0  0  0
  -20.2781   32.6796  -16.3847 C   0  0  0  0  0  0  0  0  0  0  0  0
  -21.9756   35.7085  -16.5014 O   0  0  0  0  0  0  0  0  0  0  0  0
  -21.2466   33.5700  -16.2466 N   0  0  0  0  0  0  0  0  0  0  0  0
  -20.5691   31.4113  -15.9687 N   0  0  0  0  0  0  0  0  0  0  0  0
  -23.1559   35.3503  -17.2083 C   0  0  0  0  0  0  0  0  0  0  0  0
  -21.6776   31.1344  -15.1002 C   0  0  0  0  0  0  0  0  0  0  0  0
  -22.9675   31.3964  -15.8254 C   0  0  0  0  0  0  0  0  0  0  0  0
  -23.2153   30.8393  -17.0754 C   0  0  0  0  0  0  0  0  0  0  0  0
  -23.9767   32.1832  -15.2607 C   0  0  0  0  0  0  0  0  0  0  0  0
  -24.3560   31.0271  -17.7773 N   0  0  0  0  0  0  0  0  0  0  0  0
  -25.1624   32.3910  -15.9588 C   0  0  0  0  0  0  0  0  0  0  0  0
  -25.3029   31.7989  -17.2025 C   0  0  0  0  0  0  0  0  0  0  0  0
  -16.5372   34.5391  -19.4829 H   0  0  0  0  0  0  0  0  0  0  0  0
  -17.5217   33.0930  -19.2307 H   0  0  0  0  0  0  0  0  0  0  0  0
  -18.2721   34.6312  -19.8078 H   0  0  0  0  0  0  0  0  0  0  0  0
  -19.9798   30.6795  -16.3363 H   0  0  0  0  0  0  0  0  0  0  0  0
  -23.9024   36.1299  -17.0277 H   0  0  0  0  0  0  0  0  0  0  0  0
  -22.9761   35.3075  -18.2880 H   0  0  0  0  0  0  0  0  0  0  0  0
  -23.5690   34.4047  -16.8401 H   0  0  0  0  0  0  0  0  0  0  0  0
  -21.6663   30.0876  -14.7699 H   0  0  0  0  0  0  0  0  0  0  0  0
  -21.6259   31.7550  -14.1969 H   0  0  0  0  0  0  0  0  0  0  0  0
  -22.4835   30.2026  -17.5661 H   0  0  0  0  0  0  0  0  0  0  0  0
  -23.8421   32.6302  -14.2785 H   0  0  0  0  0  0  0  0  0  0  0  0
  -25.9586   32.9977  -15.5421 H   0  0  0  0  0  0  0  0  0  0  0  0
  -26.2093   31.9312  -17.7863 H   0  0  0  0  0  0  0  0  0  0  0  0
  1  2  1  0  0  0  0
  1  3  1  0  0  0  0
  2  4  2  0  0  0  0
  2  5  1  0  0  0  0
  3 19  1  0  0  0  0
  3 20  1  0  0  0  0
  3 21  1  0  0  0  0
  4  6  1  0  0  0  0
  5  7  2  0  0  0  0
  6  8  1  0  0  0  0
  6  9  2  0  0  0  0
  7 10  1  0  0  0  0
  7  9  1  0  0  0  0
  8 11  1  0  0  0  0
 10 12  1  0  0  0  0
 10 22  1  0  0  0  0
 11 23  1  0  0  0  0
 11 24  1  0  0  0  0
 11 25  1  0  0  0  0
 12 13  1  0  0  0  0
 12 26  1  0  0  0  0
 12 27  1  0  0  0  0
 13 14  2  0  0  0  0
 13 15  1  0  0  0  0
 14 16  1  0  0  0  0
 14 28  1  0  0  0  0
 15 17  2  0  0  0  0
 15 29  1  0  0  0  0
 16 18  2  0  0  0  0
 17 18  1  0  0  0  0
 17 30  1  0  0  0  0
 18 31  1  0  0  0  0
M  END
>  <Column 1>
COc1nc(NCc2cccnc2)nc(OC)n1 ZINC000000034188

>  <Total Molweight>
247.257

>  <cLogP>
1.0054

>  <cLogS>
-2.426

>  <H-Acceptors>
7

>  <H-Donors>
1

>  <Total Surface Area>
197.8

>  <MMFF94 Energy>
-190.87

> <Gold.Version>
5.8.1

> <Gold.Id.Protein>
ID|2FQT|mol2

> <Gold.PLP.Fitness>
57.8843

> <Gold.PLP.PLP>
-48.2161

> <Gold.PLP.part.hbond>
-3.8640

> <Gold.PLP.part.metal>
0.0000

> <Gold.PLP.part.buried>
-7.7614

> <Gold.PLP.part.nonpolar>
-36.8862

> <Gold.PLP.part.repulsive>
0.1868

> <Gold.PLP.ligand.clash>
0.0000

> <Gold.PLP.ligand.torsion>
0.3868

> <Gold.PLP.Chemscore.Hbond>
2.9913

> <Gold.PLP.Chemscore.CHOScore>
0.4826

> <Gold.PLP.Chemscore.Metal>
0.0000

> <Gold.Chemscore.Hbonds>
donor molecule, donor type, donor heavy atom, donor atom, acceptor molecule, acceptor atom, score
      P1  H  1244  3476       L1    16  1.00
      P1  H  1223  2649       L1     8  1.00
      P1  H  1466  3954       L1     1  0.99
      L1  C    18    31       P1   437  0.48

> <Gold.PLP.Chemscore.Internal.Correction>
0.0203

> <Gold.Protein.RotatedTorsions>
[ 3412  950  949  948 ] final  -47.04 input   60.00 | X-H torsion
[ 3476 1244 1243 1240 ] final -167.38 input   60.00 | X-H torsion
[ 2649 1223 1224 1225 ] final  -94.66 input   60.00 | X-H torsion
[ 4380 1912 1911 1909 ] final -141.77 input   60.00 | X-H torsion
[ 3084  621  620  617 ] final   67.55 input   60.00 | X-H torsion

> <Gold.Protein.ActiveResidues>
 HIS54   GLU57   HIS58   ALA61   PHE62   ILE64   ARG65   ASP75   ILE76   ILE77  
 ASP78   ILE79   SER80   PRO81   ILE118  PRO119  ALA120  ALA121  ASN122  LYS124 
 GLN125  CYS126  GLY127  CO701   VAL4    GLU5    SER6    PHE7    GLU8    LEU9   
 HIS11   ARG20   HIS21   CYS22   GLY23   VAL24   HIS25   LYS35   ARG39   MET82  
 GLY83   CYS84   TYR89  

> <Gold.Protein.RotatedAtoms>
  -21.4670   37.3376  -16.6220 H   0  0  0  0  0  0  0  0  0  0  0  0  # atno 2649 bound_to 1223
  -20.2518   37.9940  -17.5382 H   0  0  0  0  0  0  0  0  0  0  0  0  # atno 2650 bound_to 1223
  -18.3905   28.6415  -12.8977 H   0  0  0  0  0  0  0  0  0  0  0  0  # atno 3084 bound_to 621 
  -28.9574   38.8711  -28.2373 H   0  0  0  0  0  0  0  0  0  0  0  0  # atno 3412 bound_to 950 
  -27.9805   37.5677  -28.5440 H   0  0  0  0  0  0  0  0  0  0  0  0  # atno 3413 bound_to 950 
  -27.8927   38.9140  -29.5068 H   0  0  0  0  0  0  0  0  0  0  0  0  # atno 3414 bound_to 950 
  -23.7967   31.7473  -19.6677 H   0  0  0  0  0  0  0  0  0  0  0  0  # atno 3476 bound_to 1244
  -20.0367   31.1519  -20.4781 H   0  0  0  0  0  0  0  0  0  0  0  0  # atno 4380 bound_to 1912
  -22.9367   31.6755  -21.0473 LP  0  0  0  0  0  0  0  0  0  0  0  0  # atno 4866 bound_to 1244
  -24.2588   32.6295  -20.9547 LP  0  0  0  0  0  0  0  0  0  0  0  0  # atno 4867 bound_to 1244
  -20.9006   38.8460  -16.2892 LP  0  0  0  0  0  0  0  0  0  0  0  0  # atno 4874 bound_to 1223
  -20.1486   31.9235  -19.0498 LP  0  0  0  0  0  0  0  0  0  0  0  0  # atno 4875 bound_to 1912
  -21.2530   30.7923  -19.4587 LP  0  0  0  0  0  0  0  0  0  0  0  0  # atno 4876 bound_to 1912
  -19.7674   28.2394  -13.6661 LP  0  0  0  0  0  0  0  0  0  0  0  0  # atno 4881 bound_to 621 
  -18.4272   27.3255  -13.8543 LP  0  0  0  0  0  0  0  0  0  0  0  0  # atno 4882 bound_to 621 

$$$$
Compound 181|Decoys_protonated|sdf|181|dock4
  -GOLD-   6122416213D 1   1.00000     0.00000

 35 37  0  0  0  0  0  0  0  0  1 V2000
  -17.7623   35.4295  -17.3059 S   0  0  0  0  0  0  0  0  0  0  0  0
  -17.4873   35.5110  -15.8875 O   0  0  0  0  0  0  0  0  0  0  0  0
  -17.4937   34.1675  -17.9753 O   0  0  0  0  0  0  0  0  0  0  0  0
  -19.4379   35.6254  -17.4962 N   0  0  0  0  0  0  0  0  0  0  0  0
  -16.9959   36.7072  -18.1982 C   0  0  0  0  0  0  0  0  0  0  0  0
  -20.3368   34.7130  -16.8696 C   0  0  0  0  0  0  0  0  0  0  0  0
  -17.5144   38.0909  -18.0831 C   0  0  0  0  0  0  0  0  0  0  0  0
  -15.9323   36.4826  -19.0017 C   0  0  0  0  0  0  0  0  0  0  0  0
  -19.8391   33.6663  -16.1050 C   0  0  0  0  0  0  0  0  0  0  0  0
  -21.7168   34.8329  -16.9643 C   0  0  0  0  0  0  0  0  0  0  0  0
  -18.5324   38.3973  -17.4753 O   0  0  0  0  0  0  0  0  0  0  0  0
  -16.8076   39.0618  -18.7430 N   0  0  0  0  0  0  0  0  0  0  0  0
  -15.3332   37.5450  -19.6501 N   0  0  0  0  0  0  0  0  0  0  0  0
  -15.2910   35.1517  -19.2998 C   0  0  0  0  0  0  0  0  0  0  0  0
  -20.6045   32.7352  -15.4896 N   0  0  0  0  0  0  0  0  0  0  0  0
  -22.5462   33.8886  -16.3404 C   0  0  0  0  0  0  0  0  0  0  0  0
  -15.7297   38.8464  -19.5438 C   0  0  0  0  0  0  0  0  0  0  0  0
  -21.9399   32.8455  -15.6072 C   0  0  0  0  0  0  0  0  0  0  0  0
  -23.9462   33.9646  -16.4370 C   0  0  0  0  0  0  0  0  0  0  0  0
  -15.1546   39.7502  -20.1377 O   0  0  0  0  0  0  0  0  0  0  0  0
  -22.7624   31.9111  -14.9925 C   0  0  0  0  0  0  0  0  0  0  0  0
  -24.7479   33.0129  -15.8106 C   0  0  0  0  0  0  0  0  0  0  0  0
  -24.1555   31.9843  -15.0864 C   0  0  0  0  0  0  0  0  0  0  0  0
  -19.7071   36.6054  -17.5703 H   0  0  0  0  0  0  0  0  0  0  0  0
  -18.7715   33.5261  -15.9637 H   0  0  0  0  0  0  0  0  0  0  0  0
  -22.1660   35.6547  -17.5177 H   0  0  0  0  0  0  0  0  0  0  0  0
  -17.1412   40.0106  -18.6648 H   0  0  0  0  0  0  0  0  0  0  0  0
  -14.5279   37.3982  -20.2516 H   0  0  0  0  0  0  0  0  0  0  0  0
  -14.8471   35.1487  -20.3026 H   0  0  0  0  0  0  0  0  0  0  0  0
  -16.0051   34.3251  -19.2942 H   0  0  0  0  0  0  0  0  0  0  0  0
  -14.4923   34.9454  -18.5803 H   0  0  0  0  0  0  0  0  0  0  0  0
  -24.4169   34.7643  -17.0062 H   0  0  0  0  0  0  0  0  0  0  0  0
  -22.3072   31.1039  -14.4234 H   0  0  0  0  0  0  0  0  0  0  0  0
  -25.8304   33.0750  -15.8888 H   0  0  0  0  0  0  0  0  0  0  0  0
  -24.7720   31.2372  -14.5931 H   0  0  0  0  0  0  0  0  0  0  0  0
  1  2  2  0  0  0  0
  1  3  2  0  0  0  0
  1  4  1  0  0  0  0
  1  5  1  0  0  0  0
  4  6  1  0  0  0  0
  4 24  1  0  0  0  0
  5  7  1  0  0  0  0
  5  8  2  0  0  0  0
  6  9  1  0  0  0  0
  6 10  2  0  0  0  0
  7 11  2  0  0  0  0
  7 12  1  0  0  0  0
  8 13  1  0  0  0  0
  8 14  1  0  0  0  0
  9 15  2  0  0  0  0
  9 25  1  0  0  0  0
 10 16  1  0  0  0  0
 10 26  1  0  0  0  0
 12 17  1  0  0  0  0
 12 27  1  0  0  0  0
 13 17  1  0  0  0  0
 13 28  1  0  0  0  0
 14 29  1  0  0  0  0
 14 30  1  0  0  0  0
 14 31  1  0  0  0  0
 15 18  1  0  0  0  0
 16 19  2  0  0  0  0
 16 18  1  0  0  0  0
 17 20  2  0  0  0  0
 18 21  2  0  0  0  0
 19 22  1  0  0  0  0
 19 32  1  0  0  0  0
 21 23  1  0  0  0  0
 21 33  1  0  0  0  0
 22 23  2  0  0  0  0
 22 34  1  0  0  0  0
 23 35  1  0  0  0  0
M  END
>  <Column 1>
Cc1[nH]c(=O)[nH]c(=O)c1S(=O)(=O)Nc1cnc2ccccc2c1 ZINC000000034199

>  <Total Molweight>
332.339

>  <cLogP>
0.362

>  <cLogS>
-4.455

>  <H-Acceptors>
8

>  <H-Donors>
3

>  <Total Surface Area>
226.76

>  <MMFF94 Energy>
-104.2

> <Gold.Version>
5.8.1

> <Gold.Id.Protein>
ID|2FQT|mol2

> <Gold.PLP.Fitness>
55.8121

> <Gold.PLP.PLP>
-47.2712

> <Gold.PLP.part.hbond>
-4.7364

> <Gold.PLP.part.metal>
0.0000

> <Gold.PLP.part.buried>
-9.9848

> <Gold.PLP.part.nonpolar>
-33.5869

> <Gold.PLP.part.repulsive>
0.4290

> <Gold.PLP.ligand.clash>
0.0000

> <Gold.PLP.ligand.torsion>
1.7661

> <Gold.PLP.Chemscore.Hbond>
3.0000

> <Gold.PLP.Chemscore.CHOScore>
0.0000

> <Gold.PLP.Chemscore.Metal>
0.0000

> <Gold.Chemscore.Hbonds>
donor molecule, donor type, donor heavy atom, donor atom, acceptor molecule, acceptor atom, score
      P1  H  1223  2650       L1    11  1.00
      P1  H  1230  2756       L1    11  1.00
      P1  H  1466  3954       L1     3  1.00

> <Gold.PLP.Chemscore.Internal.Correction>
3.0730

> <Gold.Protein.RotatedTorsions>
[ 3412  950  949  948 ] final  111.37 input   60.00 | X-H torsion
[ 3476 1244 1243 1240 ] final   43.19 input   60.00 | X-H torsion
[ 2649 1223 1224 1225 ] final  -80.83 input   60.00 | X-H torsion
[ 4380 1912 1911 1909 ] final -112.65 input   60.00 | X-H torsion
[ 3084  621  620  617 ] final -129.03 input   60.00 | X-H torsion

> <Gold.Protein.ActiveResidues>
 HIS54   GLU57   HIS58   ALA61   PHE62   ILE64   ARG65   ASP75   ILE76   ILE77  
 ASP78   ILE79   SER80   PRO81   ILE118  PRO119  ALA120  ALA121  ASN122  LYS124 
 GLN125  CYS126  GLY127  CO701   VAL4    GLU5    SER6    PHE7    GLU8    LEU9   
 HIS11   ARG20   HIS21   CYS22   GLY23   VAL24   HIS25   LYS35   ARG39   MET82  
 GLY83   CYS84   TYR89  

> <Gold.Protein.RotatedAtoms>
  -21.3606   37.2396  -16.8014 H   0  0  0  0  0  0  0  0  0  0  0  0  # atno 2649 bound_to 1223
  -20.1912   38.2055  -17.4697 H   0  0  0  0  0  0  0  0  0  0  0  0  # atno 2650 bound_to 1223
  -19.0927   27.3713  -14.0495 H   0  0  0  0  0  0  0  0  0  0  0  0  # atno 3084 bound_to 621 
  -27.6627   37.7743  -29.0466 H   0  0  0  0  0  0  0  0  0  0  0  0  # atno 3412 bound_to 950 
  -28.3262   39.2813  -29.2358 H   0  0  0  0  0  0  0  0  0  0  0  0  # atno 3413 bound_to 950 
  -28.8416   38.2972  -28.0057 H   0  0  0  0  0  0  0  0  0  0  0  0  # atno 3414 bound_to 950 
  -23.1633   31.9728  -21.3441 H   0  0  0  0  0  0  0  0  0  0  0  0  # atno 3476 bound_to 1244
  -20.4005   30.8535  -20.4892 H   0  0  0  0  0  0  0  0  0  0  0  0  # atno 4380 bound_to 1912
  -24.4268   32.5697  -20.5101 LP  0  0  0  0  0  0  0  0  0  0  0  0  # atno 4866 bound_to 1244
  -23.4066   31.5082  -19.8036 LP  0  0  0  0  0  0  0  0  0  0  0  0  # atno 4867 bound_to 1244
  -21.0651   38.7341  -16.1799 LP  0  0  0  0  0  0  0  0  0  0  0  0  # atno 4874 bound_to 1223
  -19.8481   31.9446  -19.4158 LP  0  0  0  0  0  0  0  0  0  0  0  0  # atno 4875 bound_to 1912
  -21.1871   31.0717  -19.0815 LP  0  0  0  0  0  0  0  0  0  0  0  0  # atno 4876 bound_to 1912
  -17.9844   28.1265  -13.1279 LP  0  0  0  0  0  0  0  0  0  0  0  0  # atno 4881 bound_to 621 
  -19.5031   28.7175  -13.2326 LP  0  0  0  0  0  0  0  0  0  0  0  0  # atno 4882 bound_to 621 

$$$$
Compound 182|Decoys_protonated|sdf|182|dock1
  -GOLD-   6122416213D 1   1.00000     0.00000

 34 35  0  0  0  0  0  0  0  0  1 V2000
  -16.6175   38.9871  -14.1731 S   0  0  0  0  0  0  0  0  0  0  0  0
  -17.5496   40.0118  -14.5891 O   0  0  0  0  0  0  0  0  0  0  0  0
  -15.3168   38.8626  -14.7917 O   0  0  0  0  0  0  0  0  0  0  0  0
  -16.3672   39.1579  -12.5309 N   0  0  0  0  0  0  0  0  0  0  0  0
  -17.4291   37.3939  -14.2781 C   0  0  0  0  0  0  0  0  0  0  0  0
  -17.2083   40.0401  -11.7305 C   0  0  0  0  0  0  0  0  0  0  0  0
  -17.9460   36.8849  -15.4901 C   0  0  0  0  0  0  0  0  0  0  0  0
  -17.5713   36.6784  -13.0786 C   0  0  0  0  0  0  0  0  0  0  0  0
  -16.3512   41.0781  -11.0320 C   0  0  0  0  0  0  0  0  0  0  0  0
  -18.6423   35.6498  -15.4283 C   0  0  0  0  0  0  0  0  0  0  0  0
  -17.8012   37.6307  -16.7944 C   0  0  0  0  0  0  0  0  0  0  0  0
  -18.2273   35.4491  -13.0574 C   0  0  0  0  0  0  0  0  0  0  0  0
  -19.2418   35.1338  -16.5895 N   0  0  0  0  0  0  0  0  0  0  0  0
  -18.7819   34.9197  -14.2260 C   0  0  0  0  0  0  0  0  0  0  0  0
  -20.0610   35.8592  -17.3733 N   0  0  0  0  0  0  0  0  0  0  0  0
  -19.1075   33.8812  -17.1209 C   0  0  0  0  0  0  0  0  0  0  0  0
  -19.4921   33.5925  -14.1583 C   0  0  0  0  0  0  0  0  0  0  0  0
  -20.4159   35.0435  -18.3584 N   0  0  0  0  0  0  0  0  0  0  0  0
  -19.8300   33.8078  -18.2149 N   0  0  0  0  0  0  0  0  0  0  0  0
  -15.4463   38.8839  -12.1939 H   0  0  0  0  0  0  0  0  0  0  0  0
  -17.9755   40.5255  -12.3410 H   0  0  0  0  0  0  0  0  0  0  0  0
  -17.7308   39.4309  -10.9854 H   0  0  0  0  0  0  0  0  0  0  0  0
  -17.1736   37.0730  -12.1444 H   0  0  0  0  0  0  0  0  0  0  0  0
  -15.6004   40.6019  -10.3924 H   0  0  0  0  0  0  0  0  0  0  0  0
  -16.9721   41.7257  -10.4055 H   0  0  0  0  0  0  0  0  0  0  0  0
  -15.8220   41.7074  -11.7546 H   0  0  0  0  0  0  0  0  0  0  0  0
  -17.8401   36.9604  -17.6585 H   0  0  0  0  0  0  0  0  0  0  0  0
  -16.8317   38.1264  -16.8762 H   0  0  0  0  0  0  0  0  0  0  0  0
  -18.6010   38.3707  -16.8944 H   0  0  0  0  0  0  0  0  0  0  0  0
  -18.3130   34.9152  -12.1121 H   0  0  0  0  0  0  0  0  0  0  0  0
  -18.4973   33.1052  -16.6857 H   0  0  0  0  0  0  0  0  0  0  0  0
  -20.4939   33.6662  -14.5932 H   0  0  0  0  0  0  0  0  0  0  0  0
  -19.6170   33.2589  -13.1225 H   0  0  0  0  0  0  0  0  0  0  0  0
  -18.9159   32.8267  -14.6866 H   0  0  0  0  0  0  0  0  0  0  0  0
  1  2  2  0  0  0  0
  1  3  2  0  0  0  0
  1  4  1  0  0  0  0
  1  5  1  0  0  0  0
  4  6  1  0  0  0  0
  4 20  1  0  0  0  0
  5  7  2  0  0  0  0
  5  8  1  0  0  0  0
  6  9  1  0  0  0  0
  6 21  1  0  0  0  0
  6 22  1  0  0  0  0
  7 10  1  0  0  0  0
  7 11  1  0  0  0  0
  8 12  2  0  0  0  0
  8 23  1  0  0  0  0
  9 24  1  0  0  0  0
  9 25  1  0  0  0  0
  9 26  1  0  0  0  0
 10 13  1  0  0  0  0
 10 14  2  0  0  0  0
 11 27  1  0  0  0  0
 11 28  1  0  0  0  0
 11 29  1  0  0  0  0
 12 14  1  0  0  0  0
 12 30  1  0  0  0  0
 13 15  1  0  0  0  0
 13 16  1  0  0  0  0
 14 17  1  0  0  0  0
 15 18  2  0  0  0  0
 16 19  2  0  0  0  0
 16 31  1  0  0  0  0
 17 32  1  0  0  0  0
 17 33  1  0  0  0  0
 17 34  1  0  0  0  0
 18 19  1  0  0  0  0
M  END
>  <Column 1>
CCNS(=O)(=O)c1ccc(C)c(-n2cnnn2)c1C ZINC000000034393

>  <Total Molweight>
281.339

>  <cLogP>
0.7777

>  <cLogS>
-2.456

>  <H-Acceptors>
7

>  <H-Donors>
1

>  <Total Surface Area>
209.08

>  <MMFF94 Energy>
-11.635

> <Gold.Version>
5.8.1

> <Gold.Id.Protein>
ID|2FQT|mol2

> <Gold.PLP.Fitness>
52.1515

> <Gold.PLP.PLP>
-40.7477

> <Gold.PLP.part.hbond>
-5.9691

> <Gold.PLP.part.metal>
0.0000

> <Gold.PLP.part.buried>
-6.3949

> <Gold.PLP.part.nonpolar>
-29.6864

> <Gold.PLP.part.repulsive>
0.3294

> <Gold.PLP.ligand.clash>
0.0000

> <Gold.PLP.ligand.torsion>
2.6868

> <Gold.PLP.Chemscore.Hbond>
3.9808

> <Gold.PLP.Chemscore.CHOScore>
0.0000

> <Gold.PLP.Chemscore.Metal>
0.0000

> <Gold.Chemscore.Hbonds>
donor molecule, donor type, donor heavy atom, donor atom, acceptor molecule, acceptor atom, score
      L1  H     4    20       P1   587  1.00
      P1  H  1223  2650       L1    15  1.00
      P1  H  1912  4380       L1    19  0.98
      P1  H  1230  2756       L1    15  0.01
      P1  H  1239  3336       L1    18  0.99

> <Gold.PLP.Chemscore.Internal.Correction>
4.8351

> <Gold.Protein.RotatedTorsions>
[ 3412  950  949  948 ] final -161.04 input   60.00 | X-H torsion
[ 3476 1244 1243 1240 ] final   69.06 input   60.00 | X-H torsion
[ 2649 1223 1224 1225 ] final -164.33 input   60.00 | X-H torsion
[ 4380 1912 1911 1909 ] final  111.21 input   60.00 | X-H torsion
[ 3084  621  620  617 ] final   21.88 input   60.00 | X-H torsion

> <Gold.Protein.ActiveResidues>
 HIS54   GLU57   HIS58   ALA61   PHE62   ILE64   ARG65   ASP75   ILE76   ILE77  
 ASP78   ILE79   SER80   PRO81   ILE118  PRO119  ALA120  ALA121  ASN122  LYS124 
 GLN125  CYS126  GLY127  CO701   VAL4    GLU5    SER6    PHE7    GLU8    LEU9   
 HIS11   ARG20   HIS21   CYS22   GLY23   VAL24   HIS25   LYS35   ARG39   MET82  
 GLY83   CYS84   TYR89  

> <Gold.Protein.RotatedAtoms>
  -21.4285   38.2771  -16.0644 H   0  0  0  0  0  0  0  0  0  0  0  0  # atno 2649 bound_to 1223
  -20.9648   37.2167  -17.2509 H   0  0  0  0  0  0  0  0  0  0  0  0  # atno 2650 bound_to 1223
  -19.0820   28.8439  -12.9930 H   0  0  0  0  0  0  0  0  0  0  0  0  # atno 3084 bound_to 621 
  -27.9537   38.9901  -29.4842 H   0  0  0  0  0  0  0  0  0  0  0  0  # atno 3412 bound_to 950 
  -28.9590   38.7875  -28.1821 H   0  0  0  0  0  0  0  0  0  0  0  0  # atno 3413 bound_to 950 
  -27.9178   37.5752  -28.6218 H   0  0  0  0  0  0  0  0  0  0  0  0  # atno 3414 bound_to 950 
  -22.9583   31.7119  -21.0882 H   0  0  0  0  0  0  0  0  0  0  0  0  # atno 3476 bound_to 1244
  -20.0011   31.9477  -19.2007 H   0  0  0  0  0  0  0  0  0  0  0  0  # atno 4380 bound_to 1912
  -24.2886   32.6308  -20.9042 LP  0  0  0  0  0  0  0  0  0  0  0  0  # atno 4866 bound_to 1244
  -23.7513   31.7100  -19.6672 LP  0  0  0  0  0  0  0  0  0  0  0  0  # atno 4867 bound_to 1244
  -20.2360   38.6861  -17.1216 LP  0  0  0  0  0  0  0  0  0  0  0  0  # atno 4874 bound_to 1223
  -21.2480   30.9049  -19.2779 LP  0  0  0  0  0  0  0  0  0  0  0  0  # atno 4875 bound_to 1912
  -20.1894   31.0095  -20.5169 LP  0  0  0  0  0  0  0  0  0  0  0  0  # atno 4876 bound_to 1912
  -19.5109   27.6427  -14.0036 LP  0  0  0  0  0  0  0  0  0  0  0  0  # atno 4881 bound_to 621 
  -17.9874   27.7183  -13.4208 LP  0  0  0  0  0  0  0  0  0  0  0  0  # atno 4882 bound_to 621 

$$$$
Compound 183|Decoys_protonated|sdf|183|dock3
  -GOLD-   6122416223D 1   1.00000     0.00000

 35 38  0  0  0  0  0  0  0  0  1 V2000
  -16.9111   38.2593  -13.5650 O   0  0  0  0  0  0  0  0  0  0  0  0
  -17.5945   37.2373  -13.5360 C   0  0  0  0  0  0  0  0  0  0  0  0
  -18.7738   37.0347  -12.5810 C   0  0  1  0  0  0  0  0  0  0  0  0
  -17.2455   36.0180  -14.3691 C   0  0  0  0  0  0  0  0  0  0  0  0
  -19.8958   36.6720  -13.3897 O   0  0  0  0  0  0  0  0  0  0  0  0
  -18.4480   35.9084  -11.7509 O   0  0  0  0  0  0  0  0  0  0  0  0
  -18.4973   35.1833  -14.7110 C   0  0  1  0  0  0  0  0  0  0  0  0
  -19.6312   35.2903  -13.6635 C   0  0  1  0  0  0  0  0  0  0  0  0
  -19.2120   34.8185  -12.2848 C   0  0  0  0  0  0  0  0  0  0  0  0
  -19.0197   35.4964  -16.0362 N   0  0  0  0  0  0  0  0  0  0  0  0
  -18.5970   36.5800  -16.7079 N   0  0  0  0  0  0  0  0  0  0  0  0
  -19.9969   34.8535  -16.7593 C   0  0  0  0  0  0  0  0  0  0  0  0
  -19.3050   36.5963  -17.8262 N   0  0  0  0  0  0  0  0  0  0  0  0
  -20.1809   35.5415  -17.8693 N   0  0  0  0  0  0  0  0  0  0  0  0
  -20.7250   33.6613  -16.3434 C   0  0  0  0  0  0  0  0  0  0  0  0
  -22.1345   33.6265  -16.3509 C   0  0  0  0  0  0  0  0  0  0  0  0
  -20.0087   32.5628  -15.8396 C   0  0  0  0  0  0  0  0  0  0  0  0
  -22.7918   32.4833  -15.8678 C   0  0  0  0  0  0  0  0  0  0  0  0
  -22.9521   34.7637  -16.9055 C   0  0  0  0  0  0  0  0  0  0  0  0
  -20.6768   31.4365  -15.3596 C   0  0  0  0  0  0  0  0  0  0  0  0
  -22.0675   31.3985  -15.3723 C   0  0  0  0  0  0  0  0  0  0  0  0
  -18.9739   37.9310  -11.9892 H   0  0  0  0  0  0  0  0  0  0  0  0
  -16.5653   35.4127  -13.7571 H   0  0  0  0  0  0  0  0  0  0  0  0
  -16.6958   36.3284  -15.2642 H   0  0  0  0  0  0  0  0  0  0  0  0
  -18.1737   34.1377  -14.7643 H   0  0  0  0  0  0  0  0  0  0  0  0
  -20.5445   34.7913  -14.0012 H   0  0  0  0  0  0  0  0  0  0  0  0
  -18.6203   33.8991  -12.2875 H   0  0  0  0  0  0  0  0  0  0  0  0
  -20.0819   34.6833  -11.6331 H   0  0  0  0  0  0  0  0  0  0  0  0
  -18.9200   32.5679  -15.8391 H   0  0  0  0  0  0  0  0  0  0  0  0
  -23.8789   32.4261  -15.8834 H   0  0  0  0  0  0  0  0  0  0  0  0
  -22.6824   35.7078  -16.4226 H   0  0  0  0  0  0  0  0  0  0  0  0
  -22.7976   34.8475  -17.9860 H   0  0  0  0  0  0  0  0  0  0  0  0
  -24.0223   34.6075  -16.7323 H   0  0  0  0  0  0  0  0  0  0  0  0
  -20.1130   30.5843  -14.9873 H   0  0  0  0  0  0  0  0  0  0  0  0
  -22.5914   30.5173  -15.0090 H   0  0  0  0  0  0  0  0  0  0  0  0
  1  2  2  0  0  0  0
  2  3  1  0  0  0  0
  2  4  1  0  0  0  0
  3  5  1  0  0  0  0
  3  6  1  0  0  0  0
  3 22  1  0  0  0  0
  4  7  1  0  0  0  0
  4 23  1  0  0  0  0
  4 24  1  0  0  0  0
  5  8  1  0  0  0  0
  6  9  1  0  0  0  0
  7 10  1  0  0  0  0
  7  8  1  0  0  0  0
  7 25  1  0  0  0  0
  8  9  1  0  0  0  0
  8 26  1  0  0  0  0
  9 27  1  0  0  0  0
  9 28  1  0  0  0  0
 10 11  1  0  0  0  0
 10 12  1  0  0  0  0
 11 13  2  0  0  0  0
 12 14  2  0  0  0  0
 12 15  1  0  0  0  0
 13 14  1  0  0  0  0
 15 16  2  0  0  0  0
 15 17  1  0  0  0  0
 16 18  1  0  0  0  0
 16 19  1  0  0  0  0
 17 20  2  0  0  0  0
 17 29  1  0  0  0  0
 18 21  2  0  0  0  0
 18 30  1  0  0  0  0
 19 31  1  0  0  0  0
 19 32  1  0  0  0  0
 19 33  1  0  0  0  0
 20 21  1  0  0  0  0
 20 34  1  0  0  0  0
 21 35  1  0  0  0  0
M  END
>  <Column 1>
Cc1ccccc1-c1nnnn1[C@H]1CC(=O)[C@@H]2OC[C@H]1O2 ZINC000000034418

>  <Total Molweight>
286.29

>  <cLogP>
1.1038

>  <cLogS>
-3.181

>  <H-Acceptors>
7

>  <H-Donors>
0

>  <Total Surface Area>
206.53

>  <MMFF94 Energy>
78.784

> <Gold.Version>
5.8.1

> <Gold.Id.Protein>
ID|2FQT|mol2

> <Gold.PLP.Fitness>
50.3449

> <Gold.PLP.PLP>
-43.6174

> <Gold.PLP.part.hbond>
-5.5715

> <Gold.PLP.part.metal>
0.0000

> <Gold.PLP.part.buried>
-5.4637

> <Gold.PLP.part.nonpolar>
-33.8793

> <Gold.PLP.part.repulsive>
0.3035

> <Gold.PLP.ligand.clash>
0.0000

> <Gold.PLP.ligand.torsion>
0.9876

> <Gold.PLP.Chemscore.Hbond>
2.6713

> <Gold.PLP.Chemscore.CHOScore>
0.0000

> <Gold.PLP.Chemscore.Metal>
0.0000

> <Gold.Chemscore.Hbonds>
donor molecule, donor type, donor heavy atom, donor atom, acceptor molecule, acceptor atom, score
      P1  H  1223  2649       L1    13  0.99
      P1  H  1230  2756       L1    13  0.69
      P1  H  1239  3336       L1    14  0.99

> <Gold.PLP.Chemscore.Internal.Correction>
0.6890

> <Gold.Protein.RotatedTorsions>
[ 3412  950  949  948 ] final -171.45 input   60.00 | X-H torsion
[ 3476 1244 1243 1240 ] final  -61.95 input   60.00 | X-H torsion
[ 2649 1223 1224 1225 ] final   12.18 input   60.00 | X-H torsion
[ 4380 1912 1911 1909 ] final   77.02 input   60.00 | X-H torsion
[ 3084  621  620  617 ] final   76.45 input   60.00 | X-H torsion

> <Gold.Protein.ActiveResidues>
 HIS54   GLU57   HIS58   ALA61   PHE62   ILE64   ARG65   ASP75   ILE76   ILE77  
 ASP78   ILE79   SER80   PRO81   ILE118  PRO119  ALA120  ALA121  ASN122  LYS124 
 GLN125  CYS126  GLY127  CO701   VAL4    GLU5    SER6    PHE7    GLU8    LEU9   
 HIS11   ARG20   HIS21   CYS22   GLY23   VAL24   HIS25   LYS35   ARG39   MET82  
 GLY83   CYS84   TYR89  

> <Gold.Protein.RotatedAtoms>
  -20.3429   37.7962  -17.5643 H   0  0  0  0  0  0  0  0  0  0  0  0  # atno 2649 bound_to 1223
  -20.7372   38.9212  -16.4128 H   0  0  0  0  0  0  0  0  0  0  0  0  # atno 2650 bound_to 1223
  -18.2773   28.5536  -12.9213 H   0  0  0  0  0  0  0  0  0  0  0  0  # atno 3084 bound_to 621 
  -27.8503   38.8547  -29.5182 H   0  0  0  0  0  0  0  0  0  0  0  0  # atno 3412 bound_to 950 
  -28.9516   38.9297  -28.2817 H   0  0  0  0  0  0  0  0  0  0  0  0  # atno 3413 bound_to 950 
  -28.0287   37.5685  -28.4882 H   0  0  0  0  0  0  0  0  0  0  0  0  # atno 3414 bound_to 950 
  -24.3587   32.6172  -20.7385 H   0  0  0  0  0  0  0  0  0  0  0  0  # atno 3476 bound_to 1244
  -20.4243   31.8000  -18.8816 H   0  0  0  0  0  0  0  0  0  0  0  0  # atno 4380 bound_to 1912
  -23.6026   31.6138  -19.7044 LP  0  0  0  0  0  0  0  0  0  0  0  0  # atno 4866 bound_to 1244
  -23.0270   31.8151  -21.2192 LP  0  0  0  0  0  0  0  0  0  0  0  0  # atno 4867 bound_to 1244
  -21.5298   37.4806  -16.4695 LP  0  0  0  0  0  0  0  0  0  0  0  0  # atno 4874 bound_to 1223
  -21.1768   30.6650  -19.7723 LP  0  0  0  0  0  0  0  0  0  0  0  0  # atno 4875 bound_to 1912
  -19.8343   31.3982  -20.3439 LP  0  0  0  0  0  0  0  0  0  0  0  0  # atno 4876 bound_to 1912
  -19.7529   28.3553  -13.5782 LP  0  0  0  0  0  0  0  0  0  0  0  0  # atno 4881 bound_to 621 
  -18.5558   27.2981  -13.9185 LP  0  0  0  0  0  0  0  0  0  0  0  0  # atno 4882 bound_to 621 

$$$$
Compound 184|Decoys_protonated|sdf|184|dock1
  -GOLD-   6122416223D 1   1.00000     0.00000

 25 26  0  0  0  0  0  0  0  0  1 V2000
  -23.9215   33.5732  -17.0027 O   0  0  0  0  0  0  0  0  0  0  0  0
  -23.1052   32.6238  -16.4475 C   0  0  0  0  0  0  0  0  0  0  0  0
  -23.4948   34.9308  -16.9620 C   0  0  0  0  0  0  0  0  0  0  0  0
  -23.4555   31.2750  -16.6387 C   0  0  0  0  0  0  0  0  0  0  0  0
  -21.9431   32.9272  -15.7186 C   0  0  0  0  0  0  0  0  0  0  0  0
  -24.6232   30.8995  -17.3405 N   0  0  0  0  0  0  0  0  0  0  0  0
  -22.6329   30.2549  -16.1361 C   0  0  0  0  0  0  0  0  0  0  0  0
  -21.1308   31.9099  -15.2066 C   0  0  0  0  0  0  0  0  0  0  0  0
  -25.3407   31.7852  -18.0734 N   0  0  0  0  0  0  0  0  0  0  0  0
  -25.1952   29.6627  -17.5004 C   0  0  0  0  0  0  0  0  0  0  0  0
  -21.4795   30.5776  -15.4235 C   0  0  0  0  0  0  0  0  0  0  0  0
  -19.9808   32.0823  -14.4864 O   0  0  0  0  0  0  0  0  0  0  0  0
  -26.3306   31.0909  -18.6173 N   0  0  0  0  0  0  0  0  0  0  0  0
  -26.2521   29.7671  -18.2735 N   0  0  0  0  0  0  0  0  0  0  0  0
  -19.6355   33.4105  -14.1147 C   0  0  0  0  0  0  0  0  0  0  0  0
  -23.5013   35.3112  -15.9356 H   0  0  0  0  0  0  0  0  0  0  0  0
  -24.2115   35.5223  -17.5399 H   0  0  0  0  0  0  0  0  0  0  0  0
  -22.5108   35.0531  -17.4264 H   0  0  0  0  0  0  0  0  0  0  0  0
  -21.6674   33.9598  -15.5477 H   0  0  0  0  0  0  0  0  0  0  0  0
  -22.8802   29.2043  -16.2823 H   0  0  0  0  0  0  0  0  0  0  0  0
  -24.8085   28.7554  -17.0650 H   0  0  0  0  0  0  0  0  0  0  0  0
  -20.8481   29.7829  -15.0316 H   0  0  0  0  0  0  0  0  0  0  0  0
  -19.4700   34.0370  -14.9973 H   0  0  0  0  0  0  0  0  0  0  0  0
  -18.6959   33.3678  -13.5555 H   0  0  0  0  0  0  0  0  0  0  0  0
  -20.3952   33.8456  -13.4569 H   0  0  0  0  0  0  0  0  0  0  0  0
  1  2  1  0  0  0  0
  1  3  1  0  0  0  0
  2  4  2  0  0  0  0
  2  5  1  0  0  0  0
  3 16  1  0  0  0  0
  3 17  1  0  0  0  0
  3 18  1  0  0  0  0
  4  6  1  0  0  0  0
  4  7  1  0  0  0  0
  5  8  2  0  0  0  0
  5 19  1  0  0  0  0
  6  9  1  0  0  0  0
  6 10  1  0  0  0  0
  7 11  2  0  0  0  0
  7 20  1  0  0  0  0
  8 12  1  0  0  0  0
  8 11  1  0  0  0  0
  9 13  2  0  0  0  0
 10 14  2  0  0  0  0
 10 21  1  0  0  0  0
 11 22  1  0  0  0  0
 12 15  1  0  0  0  0
 13 14  1  0  0  0  0
 15 23  1  0  0  0  0
 15 24  1  0  0  0  0
 15 25  1  0  0  0  0
M  END
>  <Column 1>
COc1ccc(-n2cnnn2)c(OC)c1 ZINC000000034941

>  <Total Molweight>
206.204

>  <cLogP>
0.4182

>  <cLogS>
-1.951

>  <H-Acceptors>
6

>  <H-Donors>
0

>  <Total Surface Area>
163.02

>  <MMFF94 Energy>
42.224

> <Gold.Version>
5.8.1

> <Gold.Id.Protein>
ID|2FQT|mol2

> <Gold.PLP.Fitness>
45.9308

> <Gold.PLP.PLP>
-31.6308

> <Gold.PLP.part.hbond>
-1.0000

> <Gold.PLP.part.metal>
-1.6400

> <Gold.PLP.part.buried>
-2.6068

> <Gold.PLP.part.nonpolar>
-27.0055

> <Gold.PLP.part.repulsive>
0.9503

> <Gold.PLP.ligand.clash>
0.0000

> <Gold.PLP.ligand.torsion>
0.1377

> <Gold.PLP.Chemscore.Hbond>
1.0000

> <Gold.PLP.Chemscore.CHOScore>
0.1783

> <Gold.PLP.Chemscore.Metal>
1.8390

> <Gold.Chemscore.Hbonds>
donor molecule, donor type, donor heavy atom, donor atom, acceptor molecule, acceptor atom, score
      P1  H  1244  3476       L1     9  1.00
      L1  C    10    21       P1   426  0.13
      L1  C    10    21       P1   427  0.05
      P1  M  1222  1222       L1    13  0.84
      P1  M  1222  1222       L1    14  1.00

> <Gold.PLP.Chemscore.Internal.Correction>
0.0063

> <Gold.Protein.RotatedTorsions>
[ 3412  950  949  948 ] final  130.93 input   60.00 | X-H torsion
[ 3476 1244 1243 1240 ] final -144.46 input   60.00 | X-H torsion
[ 2649 1223 1224 1225 ] final   31.43 input   60.00 | X-H torsion
[ 4380 1912 1911 1909 ] final  -32.00 input   60.00 | X-H torsion
[ 3084  621  620  617 ] final  164.01 input   60.00 | X-H torsion

> <Gold.Protein.ActiveResidues>
 HIS54   GLU57   HIS58   ALA61   PHE62   ILE64   ARG65   ASP75   ILE76   ILE77  
 ASP78   ILE79   SER80   PRO81   ILE118  PRO119  ALA120  ALA121  ASN122  LYS124 
 GLN125  CYS126  GLY127  CO701   VAL4    GLU5    SER6    PHE7    GLU8    LEU9   
 HIS11   ARG20   HIS21   CYS22   GLY23   VAL24   HIS25   LYS35   ARG39   MET82  
 GLY83   CYS84   TYR89  

> <Gold.Protein.RotatedAtoms>
  -20.2204   38.0873  -17.5130 H   0  0  0  0  0  0  0  0  0  0  0  0  # atno 2649 bound_to 1223
  -20.9719   38.8111  -16.2252 H   0  0  0  0  0  0  0  0  0  0  0  0  # atno 2650 bound_to 1223
  -18.1505   27.4843  -13.6417 H   0  0  0  0  0  0  0  0  0  0  0  0  # atno 3084 bound_to 621 
  -27.5985   38.0035  -29.2680 H   0  0  0  0  0  0  0  0  0  0  0  0  # atno 3412 bound_to 950 
  -28.5512   39.3345  -29.0074 H   0  0  0  0  0  0  0  0  0  0  0  0  # atno 3413 bound_to 950 
  -28.6808   38.0149  -28.0128 H   0  0  0  0  0  0  0  0  0  0  0  0  # atno 3414 bound_to 950 
  -24.0814   31.9817  -19.7170 H   0  0  0  0  0  0  0  0  0  0  0  0  # atno 3476 bound_to 1244
  -21.2224   30.7235  -19.6085 H   0  0  0  0  0  0  0  0  0  0  0  0  # atno 4380 bound_to 1912
  -22.8908   31.5032  -20.7178 LP  0  0  0  0  0  0  0  0  0  0  0  0  # atno 4866 bound_to 1244
  -24.0180   32.5657  -21.2346 LP  0  0  0  0  0  0  0  0  0  0  0  0  # atno 4867 bound_to 1244
  -21.4193   37.3023  -16.7049 LP  0  0  0  0  0  0  0  0  0  0  0  0  # atno 4874 bound_to 1223
  -19.9287   31.2708  -20.4299 LP  0  0  0  0  0  0  0  0  0  0  0  0  # atno 4875 bound_to 1912
  -20.2787   31.8765  -18.9543 LP  0  0  0  0  0  0  0  0  0  0  0  0  # atno 4876 bound_to 1912
  -18.7350   28.8096  -12.9001 LP  0  0  0  0  0  0  0  0  0  0  0  0  # atno 4881 bound_to 621 
  -19.7013   27.9207  -13.8710 LP  0  0  0  0  0  0  0  0  0  0  0  0  # atno 4882 bound_to 621 

$$$$
Compound 185|Decoys_protonated|sdf|185|dock2
  -GOLD-   6122416223D 1   1.00000     0.00000

 27 27  0  0  0  0  0  0  0  0  1 V2000
  -19.1390   34.3020  -17.6944 S   0  0  0  0  0  0  0  0  0  0  0  0
  -19.8326   35.3323  -16.9557 O   0  0  0  0  0  0  0  0  0  0  0  0
  -19.6257   33.8635  -18.9810 O   0  0  0  0  0  0  0  0  0  0  0  0
  -17.5159   34.7616  -17.8359 N   0  0  0  0  0  0  0  0  0  0  0  0
  -19.0265   32.9620  -16.6713 N   0  0  0  0  0  0  0  0  0  0  0  0
  -17.2124   36.1194  -17.3362 C   0  0  0  0  0  0  0  0  0  0  0  0
  -16.9545   34.5367  -19.1837 C   0  0  0  0  0  0  0  0  0  0  0  0
  -20.2683   32.3582  -16.2820 C   0  0  0  0  0  0  0  0  0  0  0  0
  -20.2715   31.2478  -15.4317 C   0  0  0  0  0  0  0  0  0  0  0  0
  -21.4710   32.9106  -16.7142 C   0  0  0  0  0  0  0  0  0  0  0  0
  -21.4764   30.6762  -15.0137 C   0  0  0  0  0  0  0  0  0  0  0  0
  -22.6769   32.3295  -16.3277 C   0  0  0  0  0  0  0  0  0  0  0  0
  -21.4801   29.5411  -14.2195 N   0  0  0  0  0  0  0  0  0  0  0  0
  -22.6756   31.2096  -15.4927 C   0  0  0  0  0  0  0  0  0  0  0  0
  -18.4792   33.2593  -15.8639 H   0  0  0  0  0  0  0  0  0  0  0  0
  -17.5949   36.8857  -18.0174 H   0  0  0  0  0  0  0  0  0  0  0  0
  -17.6322   36.2793  -16.3394 H   0  0  0  0  0  0  0  0  0  0  0  0
  -16.1278   36.2415  -17.2488 H   0  0  0  0  0  0  0  0  0  0  0  0
  -17.4857   35.1293  -19.9349 H   0  0  0  0  0  0  0  0  0  0  0  0
  -17.0040   33.4764  -19.4480 H   0  0  0  0  0  0  0  0  0  0  0  0
  -15.8973   34.8215  -19.2016 H   0  0  0  0  0  0  0  0  0  0  0  0
  -19.3321   30.8339  -15.0786 H   0  0  0  0  0  0  0  0  0  0  0  0
  -21.4764   33.7816  -17.3615 H   0  0  0  0  0  0  0  0  0  0  0  0
  -23.6179   32.7457  -16.6765 H   0  0  0  0  0  0  0  0  0  0  0  0
  -20.6030   29.1230  -13.9401 H   0  0  0  0  0  0  0  0  0  0  0  0
  -22.3069   28.9598  -14.1822 H   0  0  0  0  0  0  0  0  0  0  0  0
  -23.6244   30.7619  -15.2093 H   0  0  0  0  0  0  0  0  0  0  0  0
  1  2  2  0  0  0  0
  1  3  2  0  0  0  0
  1  4  1  0  0  0  0
  1  5  1  0  0  0  0
  4  6  1  0  0  0  0
  4  7  1  0  0  0  0
  5  8  1  0  0  0  0
  5 15  1  0  0  0  0
  6 16  1  0  0  0  0
  6 17  1  0  0  0  0
  6 18  1  0  0  0  0
  7 19  1  0  0  0  0
  7 20  1  0  0  0  0
  7 21  1  0  0  0  0
  8  9  2  0  0  0  0
  8 10  1  0  0  0  0
  9 11  1  0  0  0  0
  9 22  1  0  0  0  0
 10 12  2  0  0  0  0
 10 23  1  0  0  0  0
 11 13  1  0  0  0  0
 11 14  2  0  0  0  0
 12 14  1  0  0  0  0
 12 24  1  0  0  0  0
 13 25  1  0  0  0  0
 13 26  1  0  0  0  0
 14 27  1  0  0  0  0
M  END
>  <Column 1>
CN(C)S(=O)(=O)Nc1cccc(N)c1 ZINC000000035131

>  <Total Molweight>
215.276

>  <cLogP>
-0.1113

>  <cLogS>
-1.812

>  <H-Acceptors>
5

>  <H-Donors>
2

>  <Total Surface Area>
156.64

>  <MMFF94 Energy>
-146.4

> <Gold.Version>
5.8.1

> <Gold.Id.Protein>
ID|2FQT|mol2

> <Gold.PLP.Fitness>
52.0919

> <Gold.PLP.PLP>
-37.9873

> <Gold.PLP.part.hbond>
-7.3613

> <Gold.PLP.part.metal>
0.0000

> <Gold.PLP.part.buried>
-6.7048

> <Gold.PLP.part.nonpolar>
-24.3522

> <Gold.PLP.part.repulsive>
0.1560

> <Gold.PLP.ligand.clash>
0.0000

> <Gold.PLP.ligand.torsion>
0.2415

> <Gold.PLP.Chemscore.Hbond>
4.7373

> <Gold.PLP.Chemscore.CHOScore>
0.0000

> <Gold.PLP.Chemscore.Metal>
0.0000

> <Gold.Chemscore.Hbonds>
donor molecule, donor type, donor heavy atom, donor atom, acceptor molecule, acceptor atom, score
      L1  H    13    25       P1   621  0.78
      L1  H    13    26       P1   427  1.00
      P1  H  1223  2649       L1     2  0.71
      P1  H  1912  4380       L1     3  1.00
      P1  H  1239  3336       L1     3  0.27
      P1  H  1466  3954       L1     4  0.98

> <Gold.PLP.Chemscore.Internal.Correction>
0.3758

> <Gold.Protein.RotatedTorsions>
[ 3412  950  949  948 ] final  -62.86 input   60.00 | X-H torsion
[ 3476 1244 1243 1240 ] final  -48.46 input   60.00 | X-H torsion
[ 2649 1223 1224 1225 ] final  -42.80 input   60.00 | X-H torsion
[ 4380 1912 1911 1909 ] final  101.13 input   60.00 | X-H torsion
[ 3084  621  620  617 ] final  172.72 input   60.00 | X-H torsion

> <Gold.Protein.ActiveResidues>
 HIS54   GLU57   HIS58   ALA61   PHE62   ILE64   ARG65   ASP75   ILE76   ILE77  
 ASP78   ILE79   SER80   PRO81   ILE118  PRO119  ALA120  ALA121  ASN122  LYS124 
 GLN125  CYS126  GLY127  CO701   VAL4    GLU5    SER6    PHE7    GLU8    LEU9   
 HIS11   ARG20   HIS21   CYS22   GLY23   VAL24   HIS25   LYS35   ARG39   MET82  
 GLY83   CYS84   TYR89  

> <Gold.Protein.RotatedAtoms>
  -20.9462   37.2234  -17.2670 H   0  0  0  0  0  0  0  0  0  0  0  0  # atno 2649 bound_to 1223
  -20.2304   38.7095  -17.1048 H   0  0  0  0  0  0  0  0  0  0  0  0  # atno 2650 bound_to 1223
  -18.2426   27.4139  -13.7240 H   0  0  0  0  0  0  0  0  0  0  0  0  # atno 3084 bound_to 621 
  -28.9178   39.0671  -28.4088 H   0  0  0  0  0  0  0  0  0  0  0  0  # atno 3412 bound_to 950 
  -28.1593   37.5944  -28.3524 H   0  0  0  0  0  0  0  0  0  0  0  0  # atno 3413 bound_to 950 
  -27.7534   38.6913  -29.5269 H   0  0  0  0  0  0  0  0  0  0  0  0  # atno 3414 bound_to 950 
  -24.2625   32.6276  -20.9361 H   0  0  0  0  0  0  0  0  0  0  0  0  # atno 3476 bound_to 1244
  -20.1146   31.9270  -19.0836 H   0  0  0  0  0  0  0  0  0  0  0  0  # atno 4380 bound_to 1912
  -23.7845   31.7333  -19.6634 LP  0  0  0  0  0  0  0  0  0  0  0  0  # atno 4866 bound_to 1244
  -22.9419   31.6852  -21.0613 LP  0  0  0  0  0  0  0  0  0  0  0  0  # atno 4867 bound_to 1244
  -21.4347   38.2535  -16.0807 LP  0  0  0  0  0  0  0  0  0  0  0  0  # atno 4874 bound_to 1223
  -21.2553   30.8155  -19.4170 LP  0  0  0  0  0  0  0  0  0  0  0  0  # atno 4875 bound_to 1912
  -20.0678   31.1198  -20.4958 LP  0  0  0  0  0  0  0  0  0  0  0  0  # atno 4876 bound_to 1912
  -18.6004   28.7627  -12.8869 LP  0  0  0  0  0  0  0  0  0  0  0  0  # atno 4881 bound_to 621 
  -19.7432   28.0385  -13.8013 LP  0  0  0  0  0  0  0  0  0  0  0  0  # atno 4882 bound_to 621 

$$$$
Compound 186|Decoys_protonated|sdf|186|dock3
  -GOLD-   6122416223D 1   1.00000     0.00000

 28 30  0  0  0  0  0  0  0  0  1 V2000
  -26.2843   29.1783  -18.2440 N   0  0  0  0  0  0  0  0  0  0  0  0
  -25.4824   29.6371  -17.2729 N   0  0  0  0  0  0  0  0  0  0  0  0
  -25.7641   29.7715  -19.3111 C   0  0  0  0  0  0  0  0  0  0  0  0
  -24.5169   30.4778  -17.7598 C   0  0  0  0  0  0  0  0  0  0  0  0
  -24.6921   30.5682  -19.0662 N   0  0  0  0  0  0  0  0  0  0  0  0
  -26.1965   29.6494  -20.5553 N   0  0  0  0  0  0  0  0  0  0  0  0
  -23.4859   31.1465  -16.9637 C   0  0  0  0  0  0  0  0  0  0  0  0
  -22.5376   30.4470  -16.2052 C   0  0  0  0  0  0  0  0  0  0  0  0
  -23.4350   32.5461  -16.9515 C   0  0  0  0  0  0  0  0  0  0  0  0
  -21.5659   31.1306  -15.4559 C   0  0  0  0  0  0  0  0  0  0  0  0
  -22.4667   33.2272  -16.2049 C   0  0  0  0  0  0  0  0  0  0  0  0
  -21.5176   32.5312  -15.4459 C   0  0  0  0  0  0  0  0  0  0  0  0
  -20.5239   33.2871  -14.6808 C   0  0  0  0  0  0  0  0  0  0  0  0
  -20.6278   34.5363  -14.2632 N   0  0  0  0  0  0  0  0  0  0  0  0
  -19.3064   32.8154  -14.2672 N   0  0  0  0  0  0  0  0  0  0  0  0
  -19.4589   34.7643  -13.6109 C   0  0  0  0  0  0  0  0  0  0  0  0
  -18.6155   33.7400  -13.5857 N   0  0  0  0  0  0  0  0  0  0  0  0
  -19.2539   35.9524  -13.0664 N   0  0  0  0  0  0  0  0  0  0  0  0
  -25.6490   29.3409  -16.3205 H   0  0  0  0  0  0  0  0  0  0  0  0
  -26.9896   29.0665  -20.7752 H   0  0  0  0  0  0  0  0  0  0  0  0
  -25.7397   30.1387  -21.3102 H   0  0  0  0  0  0  0  0  0  0  0  0
  -22.5266   29.3613  -16.1751 H   0  0  0  0  0  0  0  0  0  0  0  0
  -24.1563   33.1235  -17.5294 H   0  0  0  0  0  0  0  0  0  0  0  0
  -20.8566   30.5362  -14.8872 H   0  0  0  0  0  0  0  0  0  0  0  0
  -22.4599   34.3168  -16.2212 H   0  0  0  0  0  0  0  0  0  0  0  0
  -18.8942   31.9031  -14.4093 H   0  0  0  0  0  0  0  0  0  0  0  0
  -19.9489   36.6805  -13.1306 H   0  0  0  0  0  0  0  0  0  0  0  0
  -18.3960   36.1533  -12.5751 H   0  0  0  0  0  0  0  0  0  0  0  0
  1  2  1  0  0  0  0
  1  3  2  0  0  0  0
  2  4  1  0  0  0  0
  2 19  1  0  0  0  0
  3  5  1  0  0  0  0
  3  6  1  0  0  0  0
  4  7  1  0  0  0  0
  4  5  2  0  0  0  0
  6 20  1  0  0  0  0
  6 21  1  0  0  0  0
  7  8  2  0  0  0  0
  7  9  1  0  0  0  0
  8 10  1  0  0  0  0
  8 22  1  0  0  0  0
  9 11  2  0  0  0  0
  9 23  1  0  0  0  0
 10 12  2  0  0  0  0
 10 24  1  0  0  0  0
 11 12  1  0  0  0  0
 11 25  1  0  0  0  0
 12 13  1  0  0  0  0
 13 14  2  0  0  0  0
 13 15  1  0  0  0  0
 14 16  1  0  0  0  0
 15 17  1  0  0  0  0
 15 26  1  0  0  0  0
 16 18  1  0  0  0  0
 16 17  2  0  0  0  0
 18 27  1  0  0  0  0
 18 28  1  0  0  0  0
M  END
>  <Column 1>
Nc1n[nH]c(-c2ccc(-c3nc(N)n[nH]3)cc2)n1 ZINC000000035898

>  <Total Molweight>
242.245

>  <cLogP>
-0.1302

>  <cLogS>
-4.5

>  <H-Acceptors>
8

>  <H-Donors>
4

>  <Total Surface Area>
184

>  <MMFF94 Energy>
-130.5

> <Gold.Version>
5.8.1

> <Gold.Id.Protein>
ID|2FQT|mol2

> <Gold.PLP.Fitness>
45.6229

> <Gold.PLP.PLP>
-32.7620

> <Gold.PLP.part.hbond>
-3.9954

> <Gold.PLP.part.metal>
-1.0000

> <Gold.PLP.part.buried>
-3.9761

> <Gold.PLP.part.nonpolar>
-27.0609

> <Gold.PLP.part.repulsive>
2.4711

> <Gold.PLP.ligand.clash>
0.0000

> <Gold.PLP.ligand.torsion>
1.3589

> <Gold.PLP.Chemscore.Hbond>
3.2028

> <Gold.PLP.Chemscore.CHOScore>
0.0000

> <Gold.PLP.Chemscore.Metal>
0.9951

> <Gold.Chemscore.Hbonds>
donor molecule, donor type, donor heavy atom, donor atom, acceptor molecule, acceptor atom, score
      L1  H     2    19       P1   426  1.00
      L1  H     6    21       P1  1290  0.27
      L1  H    15    26       P1   606  0.94
      P1  H  1244  3476       L1     5  0.99
      P1  M  1222  1222       L1     1  1.00

> <Gold.PLP.Chemscore.Internal.Correction>
0.0000

> <Gold.Protein.RotatedTorsions>
[ 3412  950  949  948 ] final  -92.54 input   60.00 | X-H torsion
[ 3476 1244 1243 1240 ] final -169.71 input   60.00 | X-H torsion
[ 2649 1223 1224 1225 ] final   63.18 input   60.00 | X-H torsion
[ 4380 1912 1911 1909 ] final  153.83 input   60.00 | X-H torsion
[ 3084  621  620  617 ] final   80.72 input   60.00 | X-H torsion

> <Gold.Protein.ActiveResidues>
 HIS54   GLU57   HIS58   ALA61   PHE62   ILE64   ARG65   ASP75   ILE76   ILE77  
 ASP78   ILE79   SER80   PRO81   ILE118  PRO119  ALA120  ALA121  ASN122  LYS124 
 GLN125  CYS126  GLY127  CO701   VAL4    GLU5    SER6    PHE7    GLU8    LEU9   
 HIS11   ARG20   HIS21   CYS22   GLY23   VAL24   HIS25   LYS35   ARG39   MET82  
 GLY83   CYS84   TYR89  

> <Gold.Protein.RotatedAtoms>
  -20.1805   38.5461  -17.2639 H   0  0  0  0  0  0  0  0  0  0  0  0  # atno 2649 bound_to 1223
  -21.3227   38.4565  -16.0662 H   0  0  0  0  0  0  0  0  0  0  0  0  # atno 2650 bound_to 1223
  -18.2279   28.5071  -12.9373 H   0  0  0  0  0  0  0  0  0  0  0  0  # atno 3084 bound_to 621 
  -28.7177   39.2998  -28.7909 H   0  0  0  0  0  0  0  0  0  0  0  0  # atno 3412 bound_to 950 
  -28.5076   37.8142  -28.0866 H   0  0  0  0  0  0  0  0  0  0  0  0  # atno 3413 bound_to 950 
  -27.6053   38.2388  -29.4105 H   0  0  0  0  0  0  0  0  0  0  0  0  # atno 3414 bound_to 950 
  -23.7657   31.7253  -19.6706 H   0  0  0  0  0  0  0  0  0  0  0  0  # atno 3476 bound_to 1244
  -19.7160   31.8140  -19.8039 H   0  0  0  0  0  0  0  0  0  0  0  0  # atno 4380 bound_to 1912
  -22.9481   31.6966  -21.0773 LP  0  0  0  0  0  0  0  0  0  0  0  0  # atno 4866 bound_to 1244
  -24.2786   32.6306  -20.9218 LP  0  0  0  0  0  0  0  0  0  0  0  0  # atno 4867 bound_to 1244
  -21.1129   37.1997  -17.1070 LP  0  0  0  0  0  0  0  0  0  0  0  0  # atno 4874 bound_to 1223
  -20.9704   31.3758  -18.8646 LP  0  0  0  0  0  0  0  0  0  0  0  0  # atno 4875 bound_to 1912
  -20.7541   30.6733  -20.3228 LP  0  0  0  0  0  0  0  0  0  0  0  0  # atno 4876 bound_to 1912
  -19.7383   28.4087  -13.5350 LP  0  0  0  0  0  0  0  0  0  0  0  0  # atno 4881 bound_to 621 
  -18.6202   27.2915  -13.9455 LP  0  0  0  0  0  0  0  0  0  0  0  0  # atno 4882 bound_to 621 

$$$$
Compound 187|Decoys_protonated|sdf|187|dock4
  -GOLD-   6122416223D 1   1.00000     0.00000

 29 31  0  0  0  0  0  0  0  0  3 V2000
  -27.1415   31.5398  -19.3492 O   0  0  0  0  0  0  0  0  0  0  0  0
  -26.6398   30.4071  -19.3088 N   0  3  0  0  0  0  0  0  0  0  0  0
  -27.0858   29.4210  -19.9140 O   0  5  0  0  0  0  0  0  0  0  0  0
  -25.4391   30.2171  -18.4856 C   0  0  0  0  0  0  0  0  0  0  0  0
  -24.8570   31.3171  -17.8407 C   0  0  0  0  0  0  0  0  0  0  0  0
  -24.8879   28.9368  -18.3500 C   0  0  0  0  0  0  0  0  0  0  0  0
  -23.7040   31.1428  -17.0575 C   0  0  0  0  0  0  0  0  0  0  0  0
  -23.7498   28.7606  -17.5632 C   0  0  0  0  0  0  0  0  0  0  0  0
  -23.1645   29.8543  -16.9196 C   0  0  0  0  0  0  0  0  0  0  0  0
  -23.0783   32.3159  -16.3414 C   0  0  0  0  0  0  0  0  0  0  0  0
  -21.7980   32.5905  -16.9100 O   0  0  0  0  0  0  0  0  0  0  0  0
  -21.3108   33.7969  -16.3732 N   0  0  0  0  0  0  0  0  0  0  0  0
  -20.2188   34.1657  -16.9696 C   0  0  0  0  0  0  0  0  0  0  0  0
  -19.6444   33.4488  -17.9941 N   0  0  0  0  0  0  0  0  0  0  0  0
  -19.5580   35.4100  -16.5390 C   0  0  0  0  0  0  0  0  0  0  0  0
  -18.5544   33.9049  -18.5289 C   0  0  0  0  0  0  0  0  0  0  0  0
  -19.8661   36.2684  -15.6192 N   0  0  0  0  0  0  0  0  0  0  0  0
  -18.3342   35.7830  -17.2465 C   0  0  0  0  0  0  0  0  0  0  0  0
  -17.8685   35.0537  -18.1939 N   0  0  0  0  0  0  0  0  0  0  0  0
  -18.8389   37.2678  -15.6794 O   0  0  0  0  0  0  0  0  0  0  0  0
  -17.9315   36.9344  -16.6782 N   0  0  0  0  0  0  0  0  0  0  0  0
  -25.2830   32.3143  -17.9458 H   0  0  0  0  0  0  0  0  0  0  0  0
  -25.3299   28.0744  -18.8447 H   0  0  0  0  0  0  0  0  0  0  0  0
  -23.3153   27.7695  -17.4502 H   0  0  0  0  0  0  0  0  0  0  0  0
  -22.2765   29.6939  -16.3100 H   0  0  0  0  0  0  0  0  0  0  0  0
  -23.7308   33.1908  -16.4471 H   0  0  0  0  0  0  0  0  0  0  0  0
  -22.9489   32.0949  -15.2754 H   0  0  0  0  0  0  0  0  0  0  0  0
  -18.1097   33.3159  -19.3503 H   0  0  0  0  0  0  0  0  0  0  0  0
  -17.1316   37.5110  -16.8870 H   0  0  0  0  0  0  0  0  0  0  0  0
  1  2  2  0  0  0  0
  2  3  1  0  0  0  0
  2  4  1  0  0  0  0
  4  5  2  0  0  0  0
  4  6  1  0  0  0  0
  5  7  1  0  0  0  0
  5 22  1  0  0  0  0
  6  8  2  0  0  0  0
  6 23  1  0  0  0  0
  7  9  2  0  0  0  0
  7 10  1  0  0  0  0
  8  9  1  0  0  0  0
  8 24  1  0  0  0  0
  9 25  1  0  0  0  0
 10 11  1  0  0  0  0
 10 26  1  0  0  0  0
 10 27  1  0  0  0  0
 11 12  1  0  0  0  0
 12 13  2  0  0  0  0
 13 14  1  0  0  0  0
 13 15  1  0  0  0  0
 14 16  2  0  0  0  0
 15 17  2  0  0  0  0
 15 18  1  0  0  0  0
 16 19  1  0  0  0  0
 16 28  1  0  0  0  0
 17 20  1  0  0  0  0
 18 21  1  0  0  0  0
 18 19  2  0  0  0  0
 20 21  1  0  0  0  0
 21 29  1  0  0  0  0
M  CHG  1   2   1
M  CHG  1   3  -1
M  END
>  <Column 1>
O=[N+]([O-])c1cccc(CON=c2ncnc3[nH]onc2-3)c1 ZINC000000036789

>  <Total Molweight>
288.223

>  <cLogP>
-0.5904

>  <cLogS>
-3.616

>  <H-Acceptors>
9

>  <H-Donors>
1

>  <Total Surface Area>
208.82

>  <MMFF94 Energy>
82.181

> <Gold.Version>
5.8.1

> <Gold.Id.Protein>
ID|2FQT|mol2

> <Gold.PLP.Fitness>
60.1761

> <Gold.PLP.PLP>
-42.4527

> <Gold.PLP.part.hbond>
-4.0478

> <Gold.PLP.part.metal>
-2.0000

> <Gold.PLP.part.buried>
1.9780

> <Gold.PLP.part.nonpolar>
-40.4128

> <Gold.PLP.part.repulsive>
0.3622

> <Gold.PLP.ligand.clash>
0.0000

> <Gold.PLP.ligand.torsion>
0.1073

> <Gold.PLP.Chemscore.Hbond>
2.0000

> <Gold.PLP.Chemscore.CHOScore>
0.0000

> <Gold.PLP.Chemscore.Metal>
1.9863

> <Gold.Chemscore.Hbonds>
donor molecule, donor type, donor heavy atom, donor atom, acceptor molecule, acceptor atom, score
      P1  H   966  3428       L1     3  1.00
      P1  H  1912  4380       L1    14  1.00
      P1  M  1222  1222       L1     1  0.99
      P1  M  1222  1222       L1     3  1.00

> <Gold.PLP.Chemscore.Internal.Correction>
0.0202

> <Gold.Protein.RotatedTorsions>
[ 3412  950  949  948 ] final  -51.43 input   60.00 | X-H torsion
[ 3476 1244 1243 1240 ] final  164.18 input   60.00 | X-H torsion
[ 2649 1223 1224 1225 ] final   66.11 input   60.00 | X-H torsion
[ 4380 1912 1911 1909 ] final   91.19 input   60.00 | X-H torsion
[ 3084  621  620  617 ] final -174.96 input   60.00 | X-H torsion

> <Gold.Protein.ActiveResidues>
 HIS54   GLU57   HIS58   ALA61   PHE62   ILE64   ARG65   ASP75   ILE76   ILE77  
 ASP78   ILE79   SER80   PRO81   ILE118  PRO119  ALA120  ALA121  ASN122  LYS124 
 GLN125  CYS126  GLY127  CO701   VAL4    GLU5    SER6    PHE7    GLU8    LEU9   
 HIS11   ARG20   HIS21   CYS22   GLY23   VAL24   HIS25   LYS35   ARG39   MET82  
 GLY83   CYS84   TYR89  

> <Gold.Protein.RotatedAtoms>
  -20.1876   38.5829  -17.2326 H   0  0  0  0  0  0  0  0  0  0  0  0  # atno 2649 bound_to 1223
  -21.3496   38.4159  -16.0625 H   0  0  0  0  0  0  0  0  0  0  0  0  # atno 2650 bound_to 1223
  -18.3966   27.3404  -13.8300 H   0  0  0  0  0  0  0  0  0  0  0  0  # atno 3084 bound_to 621 
  -28.9515   38.9294  -28.2814 H   0  0  0  0  0  0  0  0  0  0  0  0  # atno 3412 bound_to 950 
  -28.0284   37.5684  -28.4885 H   0  0  0  0  0  0  0  0  0  0  0  0  # atno 3413 bound_to 950 
  -27.8506   38.8550  -29.5181 H   0  0  0  0  0  0  0  0  0  0  0  0  # atno 3414 bound_to 950 
  -23.4197   31.5196  -19.8000 H   0  0  0  0  0  0  0  0  0  0  0  0  # atno 3476 bound_to 1244
  -20.2376   31.8873  -18.9856 H   0  0  0  0  0  0  0  0  0  0  0  0  # atno 4380 bound_to 1912
  -23.1510   31.9601  -21.3432 LP  0  0  0  0  0  0  0  0  0  0  0  0  # atno 4866 bound_to 1244
  -24.4242   32.5743  -20.5256 LP  0  0  0  0  0  0  0  0  0  0  0  0  # atno 4867 bound_to 1244
  -21.0795   37.2034  -17.1414 LP  0  0  0  0  0  0  0  0  0  0  0  0  # atno 4874 bound_to 1223
  -21.2391   30.7415  -19.5618 LP  0  0  0  0  0  0  0  0  0  0  0  0  # atno 4875 bound_to 1912
  -19.9601   31.2337  -20.4498 LP  0  0  0  0  0  0  0  0  0  0  0  0  # atno 4876 bound_to 1912
  -18.4209   28.6694  -12.8913 LP  0  0  0  0  0  0  0  0  0  0  0  0  # atno 4881 bound_to 621 
  -19.7676   28.2058  -13.6902 LP  0  0  0  0  0  0  0  0  0  0  0  0  # atno 4882 bound_to 621 

$$$$
Compound 188|Decoys_protonated|sdf|188|dock6
  -GOLD-   6122416223D 1   1.00000     0.00000

 40 41  0  0  0  0  0  0  0  0  1 V2000
  -17.9945   35.8112  -17.2663 S   0  0  0  0  0  0  0  0  0  0  0  0
  -18.3534   37.1659  -17.6312 O   0  0  0  0  0  0  0  0  0  0  0  0
  -17.1913   34.9712  -18.1254 O   0  0  0  0  0  0  0  0  0  0  0  0
  -17.2217   35.9475  -15.7675 N   0  0  0  0  0  0  0  0  0  0  0  0
  -19.5444   34.9755  -17.0869 C   0  0  0  0  0  0  0  0  0  0  0  0
  -17.8855   36.6414  -14.6137 C   0  0  1  0  0  0  0  0  0  0  0  0
  -20.7083   35.6023  -16.8402 N   0  0  0  0  0  0  0  0  0  0  0  0
  -19.6360   33.6053  -17.1981 N   0  0  0  0  0  0  0  0  0  0  0  0
  -18.4013   37.9844  -15.0047 C   0  0  0  0  0  0  0  0  0  0  0  0
  -19.0915   35.7107  -14.1844 C   0  0  0  0  0  0  0  0  0  0  0  0
  -16.9165   36.7947  -13.4265 C   0  0  0  0  0  0  0  0  0  0  0  0
  -21.5839   34.5740  -16.7786 N   0  0  0  0  0  0  0  0  0  0  0  0
  -20.9125   33.3652  -17.0054 C   0  0  0  0  0  0  0  0  0  0  0  0
  -18.8477   39.0184  -15.2879 N   0  0  0  0  0  0  0  0  0  0  0  0
  -18.6994   34.2413  -13.9540 C   0  0  0  0  0  0  0  0  0  0  0  0
  -19.8501   36.2057  -12.9385 C   0  0  0  0  0  0  0  0  0  0  0  0
  -22.9621   34.6049  -16.5378 C   0  0  0  0  0  0  0  0  0  0  0  0
  -21.5653   32.1676  -17.0100 N   0  0  0  0  0  0  0  0  0  0  0  0
  -23.6426   33.4447  -16.5279 C   0  0  0  0  0  0  0  0  0  0  0  0
  -23.6099   35.9339  -16.3021 C   0  0  0  0  0  0  0  0  0  0  0  0
  -22.8458   32.2014  -16.7844 C   0  0  0  0  0  0  0  0  0  0  0  0
  -23.5955   30.8919  -16.7805 C   0  0  0  0  0  0  0  0  0  0  0  0
  -16.8600   35.0212  -15.5379 H   0  0  0  0  0  0  0  0  0  0  0  0
  -19.8184   35.7148  -15.0101 H   0  0  0  0  0  0  0  0  0  0  0  0
  -17.3786   37.3356  -12.5928 H   0  0  0  0  0  0  0  0  0  0  0  0
  -16.0220   37.3716  -13.6783 H   0  0  0  0  0  0  0  0  0  0  0  0
  -16.5915   35.8185  -13.0518 H   0  0  0  0  0  0  0  0  0  0  0  0
  -17.9250   34.1436  -13.1868 H   0  0  0  0  0  0  0  0  0  0  0  0
  -18.3384   33.7716  -14.8736 H   0  0  0  0  0  0  0  0  0  0  0  0
  -19.5666   33.6569  -13.6263 H   0  0  0  0  0  0  0  0  0  0  0  0
  -20.6954   35.5436  -12.7184 H   0  0  0  0  0  0  0  0  0  0  0  0
  -19.2090   36.2236  -12.0516 H   0  0  0  0  0  0  0  0  0  0  0  0
  -20.2669   37.2061  -13.0832 H   0  0  0  0  0  0  0  0  0  0  0  0
  -24.7074   33.3707  -16.3502 H   0  0  0  0  0  0  0  0  0  0  0  0
  -24.6863   35.8343  -16.1245 H   0  0  0  0  0  0  0  0  0  0  0  0
  -23.4778   36.5873  -17.1710 H   0  0  0  0  0  0  0  0  0  0  0  0
  -23.1749   36.4254  -15.4255 H   0  0  0  0  0  0  0  0  0  0  0  0
  -24.6595   31.0372  -16.5776 H   0  0  0  0  0  0  0  0  0  0  0  0
  -23.1750   30.2385  -16.0106 H   0  0  0  0  0  0  0  0  0  0  0  0
  -23.4843   30.4105  -17.7564 H   0  0  0  0  0  0  0  0  0  0  0  0
  1  2  2  0  0  0  0
  1  3  2  0  0  0  0
  1  4  1  0  0  0  0
  1  5  1  0  0  0  0
  4  6  1  0  0  0  0
  4 23  1  0  0  0  0
  5  7  2  0  0  0  0
  5  8  1  0  0  0  0
  6  9  1  0  0  0  0
  6 10  1  0  0  0  0
  6 11  1  0  0  0  0
  7 12  1  0  0  0  0
  8 13  2  0  0  0  0
  9 14  3  0  0  0  0
 10 15  1  0  0  0  0
 10 16  1  0  0  0  0
 10 24  1  0  0  0  0
 11 25  1  0  0  0  0
 11 26  1  0  0  0  0
 11 27  1  0  0  0  0
 12 17  1  0  0  0  0
 12 13  1  0  0  0  0
 13 18  1  0  0  0  0
 15 28  1  0  0  0  0
 15 29  1  0  0  0  0
 15 30  1  0  0  0  0
 16 31  1  0  0  0  0
 16 32  1  0  0  0  0
 16 33  1  0  0  0  0
 17 19  2  0  0  0  0
 17 20  1  0  0  0  0
 18 21  2  0  0  0  0
 19 21  1  0  0  0  0
 19 34  1  0  0  0  0
 20 35  1  0  0  0  0
 20 36  1  0  0  0  0
 20 37  1  0  0  0  0
 21 22  1  0  0  0  0
 22 38  1  0  0  0  0
 22 39  1  0  0  0  0
 22 40  1  0  0  0  0
M  END
>  <Column 1>
Cc1cc(C)n2nc(S(=O)(=O)N[C@@](C)(C#N)C(C)C)nc2n1 ZINC000000036827

>  <Total Molweight>
322.392

>  <cLogP>
0.4871

>  <cLogS>
-0.755

>  <H-Acceptors>
8

>  <H-Donors>
1

>  <Total Surface Area>
240.75

>  <MMFF94 Energy>
99.599

> <Gold.Version>
5.8.1

> <Gold.Id.Protein>
ID|2FQT|mol2

> <Gold.PLP.Fitness>
60.1983

> <Gold.PLP.PLP>
-47.7296

> <Gold.PLP.part.hbond>
-5.3812

> <Gold.PLP.part.metal>
0.0000

> <Gold.PLP.part.buried>
-8.9239

> <Gold.PLP.part.nonpolar>
-34.3476

> <Gold.PLP.part.repulsive>
0.0711

> <Gold.PLP.ligand.clash>
0.0000

> <Gold.PLP.ligand.torsion>
1.1816

> <Gold.PLP.Chemscore.Hbond>
4.2357

> <Gold.PLP.Chemscore.CHOScore>
0.0000

> <Gold.PLP.Chemscore.Metal>
0.0000

> <Gold.Chemscore.Hbonds>
donor molecule, donor type, donor heavy atom, donor atom, acceptor molecule, acceptor atom, score
      P1  H  1223  2649       L1     7  0.83
      P1  H  1223  2650       L1     2  0.84
      P1  H  1912  4380       L1    18  1.00
      P1  H  1230  2756       L1     2  0.99
      P1  H  1466  3954       L1     3  0.57

> <Gold.PLP.Chemscore.Internal.Correction>
2.1248

> <Gold.Protein.RotatedTorsions>
[ 3412  950  949  948 ] final -160.32 input   60.00 | X-H torsion
[ 3476 1244 1243 1240 ] final -138.74 input   60.00 | X-H torsion
[ 2649 1223 1224 1225 ] final  -80.45 input   60.00 | X-H torsion
[ 4380 1912 1911 1909 ] final   38.41 input   60.00 | X-H torsion
[ 3084  621  620  617 ] final  -24.10 input   60.00 | X-H torsion

> <Gold.Protein.ActiveResidues>
 HIS54   GLU57   HIS58   ALA61   PHE62   ILE64   ARG65   ASP75   ILE76   ILE77  
 ASP78   ILE79   SER80   PRO81   ILE118  PRO119  ALA120  ALA121  ASN122  LYS124 
 GLN125  CYS126  GLY127  CO701   VAL4    GLU5    SER6    PHE7    GLU8    LEU9   
 HIS11   ARG20   HIS21   CYS22   GLY23   VAL24   HIS25   LYS35   ARG39   MET82  
 GLY83   CYS84   TYR89  

> <Gold.Protein.RotatedAtoms>
  -21.3573   37.2376  -16.8063 H   0  0  0  0  0  0  0  0  0  0  0  0  # atno 2649 bound_to 1223
  -20.1901   38.2111  -17.4673 H   0  0  0  0  0  0  0  0  0  0  0  0  # atno 2650 bound_to 1223
  -19.6427   28.5765  -13.3788 H   0  0  0  0  0  0  0  0  0  0  0  0  # atno 3084 bound_to 621 
  -27.9612   38.9988  -29.4810 H   0  0  0  0  0  0  0  0  0  0  0  0  # atno 3412 bound_to 950 
  -28.9587   38.7773  -28.1759 H   0  0  0  0  0  0  0  0  0  0  0  0  # atno 3413 bound_to 950 
  -27.9106   37.5767  -28.6312 H   0  0  0  0  0  0  0  0  0  0  0  0  # atno 3414 bound_to 950 
  -24.1436   32.0425  -19.7507 H   0  0  0  0  0  0  0  0  0  0  0  0  # atno 3476 bound_to 1244
  -20.9163   31.4257  -18.8480 H   0  0  0  0  0  0  0  0  0  0  0  0  # atno 4380 bound_to 1912
  -22.8985   31.4721  -20.6295 LP  0  0  0  0  0  0  0  0  0  0  0  0  # atno 4866 bound_to 1244
  -23.9476   32.5356  -21.2890 LP  0  0  0  0  0  0  0  0  0  0  0  0  # atno 4867 bound_to 1244
  -21.0695   38.7305  -16.1774 LP  0  0  0  0  0  0  0  0  0  0  0  0  # atno 4874 bound_to 1223
  -20.8113   30.6548  -20.2772 LP  0  0  0  0  0  0  0  0  0  0  0  0  # atno 4875 bound_to 1912
  -19.7045   31.7853  -19.8728 LP  0  0  0  0  0  0  0  0  0  0  0  0  # atno 4876 bound_to 1912
  -18.8577   27.3032  -14.0197 LP  0  0  0  0  0  0  0  0  0  0  0  0  # atno 4881 bound_to 621 
  -18.0760   28.3272  -13.0162 LP  0  0  0  0  0  0  0  0  0  0  0  0  # atno 4882 bound_to 621 

$$$$
Compound 189|Decoys_protonated|sdf|189|dock2
  -GOLD-   6122416223D 1   1.00000     0.00000

 32 34  0  0  0  0  0  0  0  0  1 V2000
  -18.6270   35.3147  -16.9442 S   0  0  0  0  0  0  0  0  0  0  0  0
  -19.2379   36.5025  -17.5007 O   0  0  0  0  0  0  0  0  0  0  0  0
  -17.5726   34.6101  -17.6404 O   0  0  0  0  0  0  0  0  0  0  0  0
  -18.0629   35.7092  -15.3815 N   0  0  0  0  0  0  0  0  0  0  0  0
  -19.9057   34.1286  -16.6032 C   0  0  0  0  0  0  0  0  0  0  0  0
  -18.7916   35.0361  -14.2561 C   0  0  0  0  0  0  0  0  0  0  0  0
  -18.0302   37.1902  -15.1368 C   0  0  0  0  0  0  0  0  0  0  0  0
  -21.2391   34.5196  -16.7900 C   0  0  0  0  0  0  0  0  0  0  0  0
  -19.5595   32.8337  -16.1443 C   0  0  0  0  0  0  0  0  0  0  0  0
  -18.1205   35.3958  -12.9252 C   0  0  0  0  0  0  0  0  0  0  0  0
  -17.3932   37.4717  -13.7716 C   0  0  0  0  0  0  0  0  0  0  0  0
  -22.1885   33.5677  -16.5147 C   0  0  0  0  0  0  0  0  0  0  0  0
  -20.5547   31.8878  -15.8725 C   0  0  0  0  0  0  0  0  0  0  0  0
  -18.1107   36.8151  -12.7161 O   0  0  0  0  0  0  0  0  0  0  0  0
  -23.5735   33.6433  -16.6038 N   0  0  0  0  0  0  0  0  0  0  0  0
  -21.8564   32.2868  -16.0701 C   0  0  0  0  0  0  0  0  0  0  0  0
  -24.1190   32.4109  -16.2154 C   0  0  0  0  0  0  0  0  0  0  0  0
  -23.0383   31.5788  -15.8880 N   0  0  0  0  0  0  0  0  0  0  0  0
  -25.3003   32.1196  -16.1720 O   0  0  0  0  0  0  0  0  0  0  0  0
  -19.8338   35.3755  -14.2440 H   0  0  0  0  0  0  0  0  0  0  0  0
  -18.7671   33.9502  -14.3810 H   0  0  0  0  0  0  0  0  0  0  0  0
  -17.4387   37.6876  -15.9119 H   0  0  0  0  0  0  0  0  0  0  0  0
  -19.0545   37.5806  -15.1568 H   0  0  0  0  0  0  0  0  0  0  0  0
  -21.5000   35.5153  -17.1295 H   0  0  0  0  0  0  0  0  0  0  0  0
  -18.5145   32.5655  -15.9956 H   0  0  0  0  0  0  0  0  0  0  0  0
  -17.0904   35.0214  -12.8870 H   0  0  0  0  0  0  0  0  0  0  0  0
  -18.6728   34.9428  -12.0962 H   0  0  0  0  0  0  0  0  0  0  0  0
  -16.3467   37.1449  -13.7482 H   0  0  0  0  0  0  0  0  0  0  0  0
  -17.4128   38.5467  -13.5663 H   0  0  0  0  0  0  0  0  0  0  0  0
  -20.3058   30.8939  -15.5198 H   0  0  0  0  0  0  0  0  0  0  0  0
  -24.1287   34.4354  -16.8845 H   0  0  0  0  0  0  0  0  0  0  0  0
  -23.1423   30.6296  -15.5684 H   0  0  0  0  0  0  0  0  0  0  0  0
  1  2  2  0  0  0  0
  1  3  2  0  0  0  0
  1  4  1  0  0  0  0
  1  5  1  0  0  0  0
  4  6  1  0  0  0  0
  4  7  1  0  0  0  0
  5  8  2  0  0  0  0
  5  9  1  0  0  0  0
  6 10  1  0  0  0  0
  6 20  1  0  0  0  0
  6 21  1  0  0  0  0
  7 11  1  0  0  0  0
  7 22  1  0  0  0  0
  7 23  1  0  0  0  0
  8 12  1  0  0  0  0
  8 24  1  0  0  0  0
  9 13  2  0  0  0  0
  9 25  1  0  0  0  0
 10 14  1  0  0  0  0
 10 26  1  0  0  0  0
 10 27  1  0  0  0  0
 11 14  1  0  0  0  0
 11 28  1  0  0  0  0
 11 29  1  0  0  0  0
 12 15  1  0  0  0  0
 12 16  2  0  0  0  0
 13 16  1  0  0  0  0
 13 30  1  0  0  0  0
 15 17  1  0  0  0  0
 15 31  1  0  0  0  0
 16 18  1  0  0  0  0
 17 19  2  0  0  0  0
 17 18  1  0  0  0  0
 18 32  1  0  0  0  0
M  END
>  <Column 1>
O=c1[nH]c2ccc(S(=O)(=O)N3CCOCC3)cc2[nH]1 ZINC000000036854

>  <Total Molweight>
283.307

>  <cLogP>
-0.4059

>  <cLogS>
-1.764

>  <H-Acceptors>
7

>  <H-Donors>
2

>  <Total Surface Area>
190.85

>  <MMFF94 Energy>
-26.707

> <Gold.Version>
5.8.1

> <Gold.Id.Protein>
ID|2FQT|mol2

> <Gold.PLP.Fitness>
47.2703

> <Gold.PLP.PLP>
-39.3045

> <Gold.PLP.part.hbond>
-2.8786

> <Gold.PLP.part.metal>
0.0000

> <Gold.PLP.part.buried>
-8.3481

> <Gold.PLP.part.nonpolar>
-28.3913

> <Gold.PLP.part.repulsive>
0.2785

> <Gold.PLP.ligand.clash>
0.0000

> <Gold.PLP.ligand.torsion>
1.1836

> <Gold.PLP.Chemscore.Hbond>
2.7120

> <Gold.PLP.Chemscore.CHOScore>
0.0000

> <Gold.PLP.Chemscore.Metal>
0.0000

> <Gold.Chemscore.Hbonds>
donor molecule, donor type, donor heavy atom, donor atom, acceptor molecule, acceptor atom, score
      P1  H  1223  2650       L1     2  0.94
      P1  H  1230  2756       L1     2  0.77
      P1  H  1466  3954       L1     3  1.00

> <Gold.PLP.Chemscore.Internal.Correction>
2.1970

> <Gold.Protein.RotatedTorsions>
[ 3412  950  949  948 ] final  -77.13 input   60.00 | X-H torsion
[ 3476 1244 1243 1240 ] final  147.36 input   60.00 | X-H torsion
[ 2649 1223 1224 1225 ] final -121.71 input   60.00 | X-H torsion
[ 4380 1912 1911 1909 ] final   -3.31 input   60.00 | X-H torsion
[ 3084  621  620  617 ] final -139.78 input   60.00 | X-H torsion

> <Gold.Protein.ActiveResidues>
 HIS54   GLU57   HIS58   ALA61   PHE62   ILE64   ARG65   ASP75   ILE76   ILE77  
 ASP78   ILE79   SER80   PRO81   ILE118  PRO119  ALA120  ALA121  ASN122  LYS124 
 GLN125  CYS126  GLY127  CO701   VAL4    GLU5    SER6    PHE7    GLU8    LEU9   
 HIS11   ARG20   HIS21   CYS22   GLY23   VAL24   HIS25   LYS35   ARG39   MET82  
 GLY83   CYS84   TYR89  

> <Gold.Protein.RotatedAtoms>
  -21.5715   37.6431  -16.3120 H   0  0  0  0  0  0  0  0  0  0  0  0  # atno 2649 bound_to 1223
  -20.4691   37.6028  -17.5491 H   0  0  0  0  0  0  0  0  0  0  0  0  # atno 2650 bound_to 1223
  -18.9262   27.3204  -14.0282 H   0  0  0  0  0  0  0  0  0  0  0  0  # atno 3084 bound_to 621 
  -28.8402   39.2042  -28.5869 H   0  0  0  0  0  0  0  0  0  0  0  0  # atno 3412 bound_to 950 
  -28.3287   37.6743  -28.2059 H   0  0  0  0  0  0  0  0  0  0  0  0  # atno 3413 bound_to 950 
  -27.6616   38.4743  -29.4953 H   0  0  0  0  0  0  0  0  0  0  0  0  # atno 3414 bound_to 950 
  -23.2188   31.4390  -19.9679 H   0  0  0  0  0  0  0  0  0  0  0  0  # atno 3476 bound_to 1244
  -21.2273   30.9594  -19.2092 H   0  0  0  0  0  0  0  0  0  0  0  0  # atno 4380 bound_to 1912
  -23.3410   32.1397  -21.4315 LP  0  0  0  0  0  0  0  0  0  0  0  0  # atno 4866 bound_to 1244
  -24.4365   32.4758  -20.2682 LP  0  0  0  0  0  0  0  0  0  0  0  0  # atno 4867 bound_to 1244
  -20.5835   38.9303  -16.5839 LP  0  0  0  0  0  0  0  0  0  0  0  0  # atno 4874 bound_to 1223
  -20.2596   30.9530  -20.5174 LP  0  0  0  0  0  0  0  0  0  0  0  0  # atno 4875 bound_to 1912
  -19.9429   31.9568  -19.2689 LP  0  0  0  0  0  0  0  0  0  0  0  0  # atno 4876 bound_to 1912
  -18.0439   28.2709  -13.0453 LP  0  0  0  0  0  0  0  0  0  0  0  0  # atno 4881 bound_to 621 
  -19.6113   28.6244  -13.3367 LP  0  0  0  0  0  0  0  0  0  0  0  0  # atno 4882 bound_to 621 

$$$$
Compound 190|Decoys_protonated|sdf|190|dock10
  -GOLD-   6122416223D 1   1.00000     0.00000

 37 39  0  0  0  0  0  0  0  0  1 V2000
  -18.5235   35.1378  -17.4748 S   0  0  0  0  0  0  0  0  0  0  0  0
  -18.0934   33.8054  -17.8373 O   0  0  0  0  0  0  0  0  0  0  0  0
  -19.8314   35.6368  -17.8406 O   0  0  0  0  0  0  0  0  0  0  0  0
  -18.3572   35.3137  -15.7852 N   0  0  0  0  0  0  0  0  0  0  0  0
  -17.2974   36.2623  -18.0995 C   0  0  0  0  0  0  0  0  0  0  0  0
  -18.7095   36.6705  -15.2511 C   0  0  0  0  0  0  0  0  0  0  0  0
  -19.1130   34.2666  -15.0188 C   0  0  0  0  0  0  0  0  0  0  0  0
  -17.4156   37.6207  -17.7868 C   0  0  0  0  0  0  0  0  0  0  0  0
  -16.2253   35.7784  -18.8753 C   0  0  0  0  0  0  0  0  0  0  0  0
  -18.4169   36.7195  -13.7468 C   0  0  0  0  0  0  0  0  0  0  0  0
  -18.8116   34.4068  -13.5226 C   0  0  0  0  0  0  0  0  0  0  0  0
  -16.4422   38.4619  -18.2834 C   0  0  0  0  0  0  0  0  0  0  0  0
  -15.2550   36.6624  -19.3624 C   0  0  0  0  0  0  0  0  0  0  0  0
  -19.1581   35.7141  -13.0416 O   0  0  0  0  0  0  0  0  0  0  0  0
  -16.4030   39.8267  -18.0772 O   0  0  0  0  0  0  0  0  0  0  0  0
  -15.3897   38.0039  -19.0513 C   0  0  0  0  0  0  0  0  0  0  0  0
  -15.2436   40.2147  -18.7722 C   0  0  0  0  0  0  0  0  0  0  0  0
  -14.6225   39.1141  -19.3651 N   0  0  0  0  0  0  0  0  0  0  0  0
  -14.8987   41.3881  -18.8070 O   0  0  0  0  0  0  0  0  0  0  0  0
  -13.4717   39.1004  -20.1342 C   0  0  0  0  0  0  0  0  0  0  0  0
  -12.9913   38.0975  -20.6564 O   0  0  0  0  0  0  0  0  0  0  0  0
  -12.9073   40.3328  -20.2673 O   0  0  0  0  0  0  0  0  0  0  0  0
  -11.8706   40.4208  -21.2459 C   0  0  0  0  0  0  0  0  0  0  0  0
  -19.7748   36.8631  -15.4230 H   0  0  0  0  0  0  0  0  0  0  0  0
  -18.1180   37.4425  -15.7509 H   0  0  0  0  0  0  0  0  0  0  0  0
  -18.8111   33.2674  -15.3477 H   0  0  0  0  0  0  0  0  0  0  0  0
  -20.1869   34.3972  -15.1958 H   0  0  0  0  0  0  0  0  0  0  0  0
  -18.2320   37.9969  -17.1784 H   0  0  0  0  0  0  0  0  0  0  0  0
  -16.1392   34.7156  -19.0977 H   0  0  0  0  0  0  0  0  0  0  0  0
  -17.3476   36.5827  -13.5464 H   0  0  0  0  0  0  0  0  0  0  0  0
  -18.7118   37.6929  -13.3424 H   0  0  0  0  0  0  0  0  0  0  0  0
  -19.3991   33.6786  -12.9550 H   0  0  0  0  0  0  0  0  0  0  0  0
  -17.7517   34.2193  -13.3132 H   0  0  0  0  0  0  0  0  0  0  0  0
  -14.4292   36.2853  -19.9581 H   0  0  0  0  0  0  0  0  0  0  0  0
  -11.0409   39.7562  -20.9858 H   0  0  0  0  0  0  0  0  0  0  0  0
  -12.2617   40.1844  -22.2403 H   0  0  0  0  0  0  0  0  0  0  0  0
  -11.5002   41.4495  -21.2552 H   0  0  0  0  0  0  0  0  0  0  0  0
  1  2  2  0  0  0  0
  1  3  2  0  0  0  0
  1  4  1  0  0  0  0
  1  5  1  0  0  0  0
  4  6  1  0  0  0  0
  4  7  1  0  0  0  0
  5  8  2  0  0  0  0
  5  9  1  0  0  0  0
  6 10  1  0  0  0  0
  6 24  1  0  0  0  0
  6 25  1  0  0  0  0
  7 11  1  0  0  0  0
  7 26  1  0  0  0  0
  7 27  1  0  0  0  0
  8 12  1  0  0  0  0
  8 28  1  0  0  0  0
  9 13  2  0  0  0  0
  9 29  1  0  0  0  0
 10 14  1  0  0  0  0
 10 30  1  0  0  0  0
 10 31  1  0  0  0  0
 11 14  1  0  0  0  0
 11 32  1  0  0  0  0
 11 33  1  0  0  0  0
 12 15  1  0  0  0  0
 12 16  2  0  0  0  0
 13 16  1  0  0  0  0
 13 34  1  0  0  0  0
 15 17  1  0  0  0  0
 16 18  1  0  0  0  0
 17 19  2  0  0  0  0
 17 18  1  0  0  0  0
 18 20  1  0  0  0  0
 20 21  2  0  0  0  0
 20 22  1  0  0  0  0
 22 23  1  0  0  0  0
 23 35  1  0  0  0  0
 23 36  1  0  0  0  0
 23 37  1  0  0  0  0
M  END
>  <Column 1>
COC(=O)n1c(=O)oc2cc(S(=O)(=O)N3CCOCC3)ccc21 ZINC000000036863

>  <Total Molweight>
342.327

>  <cLogP>
0.7626

>  <cLogS>
-2.295

>  <H-Acceptors>
9

>  <H-Donors>
0

>  <Total Surface Area>
228.24

>  <MMFF94 Energy>
-19.189

> <Gold.Version>
5.8.1

> <Gold.Id.Protein>
ID|2FQT|mol2

> <Gold.PLP.Fitness>
48.0495

> <Gold.PLP.PLP>
-38.5492

> <Gold.PLP.part.hbond>
-4.3054

> <Gold.PLP.part.metal>
0.0000

> <Gold.PLP.part.buried>
-7.9180

> <Gold.PLP.part.nonpolar>
-26.7683

> <Gold.PLP.part.repulsive>
0.4235

> <Gold.PLP.ligand.clash>
0.0000

> <Gold.PLP.ligand.torsion>
1.4036

> <Gold.PLP.Chemscore.Hbond>
3.3673

> <Gold.PLP.Chemscore.CHOScore>
0.0000

> <Gold.PLP.Chemscore.Metal>
0.0000

> <Gold.Chemscore.Hbonds>
donor molecule, donor type, donor heavy atom, donor atom, acceptor molecule, acceptor atom, score
      P1  H  1223  2650       L1     3  1.00
      P1  H  1230  2756       L1     3  0.04
      P1  H  1239  3336       L1     3  0.46
      P1  H  1466  3954       L1     2  0.87
      P1  H  1380  3864       L1    21  1.00

> <Gold.PLP.Chemscore.Internal.Correction>
2.2055

> <Gold.Protein.RotatedTorsions>
[ 3412  950  949  948 ] final -102.38 input   60.00 | X-H torsion
[ 3476 1244 1243 1240 ] final -134.09 input   60.00 | X-H torsion
[ 2649 1223 1224 1225 ] final -156.10 input   60.00 | X-H torsion
[ 4380 1912 1911 1909 ] final  122.13 input   60.00 | X-H torsion
[ 3084  621  620  617 ] final  -28.35 input   60.00 | X-H torsion

> <Gold.Protein.ActiveResidues>
 HIS54   GLU57   HIS58   ALA61   PHE62   ILE64   ARG65   ASP75   ILE76   ILE77  
 ASP78   ILE79   SER80   PRO81   ILE118  PRO119  ALA120  ALA121  ASN122  LYS124 
 GLN125  CYS126  GLY127  CO701   VAL4    GLU5    SER6    PHE7    GLU8    LEU9   
 HIS11   ARG20   HIS21   CYS22   GLY23   VAL24   HIS25   LYS35   ARG39   MET82  
 GLY83   CYS84   TYR89  

> <Gold.Protein.RotatedAtoms>
  -21.4840   38.1530  -16.0827 H   0  0  0  0  0  0  0  0  0  0  0  0  # atno 2649 bound_to 1223
  -20.8643   37.2598  -17.3338 H   0  0  0  0  0  0  0  0  0  0  0  0  # atno 2650 bound_to 1223
  -19.6737   28.5316  -13.4217 H   0  0  0  0  0  0  0  0  0  0  0  0  # atno 3084 bound_to 621 
  -28.6222   39.3292  -28.9211 H   0  0  0  0  0  0  0  0  0  0  0  0  # atno 3412 bound_to 950 
  -28.6140   37.9282  -28.0354 H   0  0  0  0  0  0  0  0  0  0  0  0  # atno 3413 bound_to 950 
  -27.5944   38.0954  -29.3315 H   0  0  0  0  0  0  0  0  0  0  0  0  # atno 3414 bound_to 950 
  -24.1908   32.0919  -19.7840 H   0  0  0  0  0  0  0  0  0  0  0  0  # atno 3476 bound_to 1244
  -19.8947   31.9471  -19.3438 H   0  0  0  0  0  0  0  0  0  0  0  0  # atno 4380 bound_to 1912
  -22.9105   31.4507  -20.5570 LP  0  0  0  0  0  0  0  0  0  0  0  0  # atno 4866 bound_to 1244
  -23.8881   32.5073  -21.3279 LP  0  0  0  0  0  0  0  0  0  0  0  0  # atno 4867 bound_to 1244
  -20.2803   38.7660  -17.0219 LP  0  0  0  0  0  0  0  0  0  0  0  0  # atno 4874 bound_to 1223
  -21.2132   31.0153  -19.1406 LP  0  0  0  0  0  0  0  0  0  0  0  0  # atno 4875 bound_to 1912
  -20.3314   30.8998  -20.5102 LP  0  0  0  0  0  0  0  0  0  0  0  0  # atno 4876 bound_to 1912
  -18.7905   27.2944  -14.0026 LP  0  0  0  0  0  0  0  0  0  0  0  0  # atno 4881 bound_to 621 
  -18.1119   28.3812  -12.9901 LP  0  0  0  0  0  0  0  0  0  0  0  0  # atno 4882 bound_to 621 

$$$$
Compound 191|Decoys_protonated|sdf|191|dock7
  -GOLD-   6122416223D 1   1.00000     0.00000

 36 37  0  0  0  0  0  0  0  0  1 V2000
  -21.2402   32.0884  -15.1673 S   0  0  0  0  0  0  0  0  0  0  0  0
  -20.2613   31.0224  -15.1939 O   0  0  0  0  0  0  0  0  0  0  0  0
  -21.6283   32.7189  -13.9234 O   0  0  0  0  0  0  0  0  0  0  0  0
  -20.7164   33.3041  -16.2259 N   0  0  0  0  0  0  0  0  0  0  0  0
  -22.7242   31.4723  -15.9392 C   0  0  0  0  0  0  0  0  0  0  0  0
  -21.7281   34.3058  -16.6643 C   0  0  0  0  0  0  0  0  0  0  0  0
  -19.4080   33.9496  -15.9258 C   0  0  0  0  0  0  0  0  0  0  0  0
  -23.9194   32.1880  -15.8129 C   0  0  0  0  0  0  0  0  0  0  0  0
  -22.6661   30.3171  -16.7262 C   0  0  0  0  0  0  0  0  0  0  0  0
  -21.1729   35.1033  -17.8509 C   0  0  0  0  0  0  0  0  0  0  0  0
  -18.9509   34.7620  -17.1436 C   0  0  0  0  0  0  0  0  0  0  0  0
  -25.0742   31.7169  -16.4412 C   0  0  0  0  0  0  0  0  0  0  0  0
  -23.8236   29.8525  -17.3542 C   0  0  0  0  0  0  0  0  0  0  0  0
  -19.9342   35.7445  -17.5068 O   0  0  0  0  0  0  0  0  0  0  0  0
  -25.0264   30.5420  -17.1949 C   0  0  0  0  0  0  0  0  0  0  0  0
  -26.1934   30.0883  -17.8759 N   0  0  0  0  0  0  0  0  0  0  0  0
  -26.2189   30.2787  -19.5616 S   0  0  0  0  0  0  0  0  0  0  0  0
  -27.4807   29.7101  -19.9868 O   0  0  0  0  0  0  0  0  0  0  0  0
  -25.8381   31.6253  -19.9211 O   0  0  0  0  0  0  0  0  0  0  0  0
  -24.9291   29.1566  -20.0533 C   0  0  0  0  0  0  0  0  0  0  0  0
  -21.9406   34.9897  -15.8352 H   0  0  0  0  0  0  0  0  0  0  0  0
  -22.6546   33.8118  -16.9711 H   0  0  0  0  0  0  0  0  0  0  0  0
  -18.6487   33.1966  -15.6961 H   0  0  0  0  0  0  0  0  0  0  0  0
  -19.5254   34.6187  -15.0664 H   0  0  0  0  0  0  0  0  0  0  0  0
  -23.9557   33.1160  -15.2460 H   0  0  0  0  0  0  0  0  0  0  0  0
  -21.7279   29.7838  -16.8630 H   0  0  0  0  0  0  0  0  0  0  0  0
  -21.0127   34.4585  -18.7232 H   0  0  0  0  0  0  0  0  0  0  0  0
  -21.8824   35.8859  -18.1379 H   0  0  0  0  0  0  0  0  0  0  0  0
  -18.0229   35.2930  -16.9097 H   0  0  0  0  0  0  0  0  0  0  0  0
  -18.7581   34.1123  -18.0056 H   0  0  0  0  0  0  0  0  0  0  0  0
  -25.9968   32.2858  -16.3588 H   0  0  0  0  0  0  0  0  0  0  0  0
  -23.7785   28.9533  -17.9614 H   0  0  0  0  0  0  0  0  0  0  0  0
  -27.0760   30.4474  -17.5043 H   0  0  0  0  0  0  0  0  0  0  0  0
  -23.9733   29.5200  -19.6735 H   0  0  0  0  0  0  0  0  0  0  0  0
  -25.1557   28.1620  -19.6646 H   0  0  0  0  0  0  0  0  0  0  0  0
  -24.9060   29.1306  -21.1450 H   0  0  0  0  0  0  0  0  0  0  0  0
  1  2  2  0  0  0  0
  1  3  2  0  0  0  0
  1  4  1  0  0  0  0
  1  5  1  0  0  0  0
  4  6  1  0  0  0  0
  4  7  1  0  0  0  0
  5  8  2  0  0  0  0
  5  9  1  0  0  0  0
  6 10  1  0  0  0  0
  6 21  1  0  0  0  0
  6 22  1  0  0  0  0
  7 11  1  0  0  0  0
  7 23  1  0  0  0  0
  7 24  1  0  0  0  0
  8 12  1  0  0  0  0
  8 25  1  0  0  0  0
  9 13  2  0  0  0  0
  9 26  1  0  0  0  0
 10 14  1  0  0  0  0
 10 27  1  0  0  0  0
 10 28  1  0  0  0  0
 11 14  1  0  0  0  0
 11 29  1  0  0  0  0
 11 30  1  0  0  0  0
 12 15  2  0  0  0  0
 12 31  1  0  0  0  0
 13 15  1  0  0  0  0
 13 32  1  0  0  0  0
 15 16  1  0  0  0  0
 16 17  1  0  0  0  0
 16 33  1  0  0  0  0
 17 18  2  0  0  0  0
 17 19  2  0  0  0  0
 17 20  1  0  0  0  0
 20 34  1  0  0  0  0
 20 35  1  0  0  0  0
 20 36  1  0  0  0  0
M  END
>  <Column 1>
CS(=O)(=O)Nc1ccc(S(=O)(=O)N2CCOCC2)cc1 ZINC000000036971

>  <Total Molweight>
320.389

>  <cLogP>
-0.2489

>  <cLogS>
-1.909

>  <H-Acceptors>
7

>  <H-Donors>
1

>  <Total Surface Area>
215.98

>  <MMFF94 Energy>
-26.011

> <Gold.Version>
5.8.1

> <Gold.Id.Protein>
ID|2FQT|mol2

> <Gold.PLP.Fitness>
60.4820

> <Gold.PLP.PLP>
-39.0039

> <Gold.PLP.part.hbond>
-3.1161

> <Gold.PLP.part.metal>
-2.0000

> <Gold.PLP.part.buried>
3.9176

> <Gold.PLP.part.nonpolar>
-39.5032

> <Gold.PLP.part.repulsive>
0.7129

> <Gold.PLP.ligand.clash>
0.0477

> <Gold.PLP.ligand.torsion>
1.4718

> <Gold.PLP.Chemscore.Hbond>
3.3067

> <Gold.PLP.Chemscore.CHOScore>
0.0000

> <Gold.PLP.Chemscore.Metal>
1.9951

> <Gold.Chemscore.Hbonds>
donor molecule, donor type, donor heavy atom, donor atom, acceptor molecule, acceptor atom, score
      L1  H    16    33       P1   437  1.00
      P1  H   966  3428       L1    18  0.59
      P1  H  1244  3476       L1    19  0.90
      P1  H  1223  2650       L1    14  0.82
      P1  M  1222  1222       L1    16  1.00
      P1  M  1222  1222       L1    18  1.00

> <Gold.PLP.Chemscore.Internal.Correction>
2.5786

> <Gold.Protein.RotatedTorsions>
[ 3412  950  949  948 ] final   -9.55 input   60.00 | X-H torsion
[ 3476 1244 1243 1240 ] final -112.02 input   60.00 | X-H torsion
[ 2649 1223 1224 1225 ] final -129.89 input   60.00 | X-H torsion
[ 4380 1912 1911 1909 ] final   76.48 input   60.00 | X-H torsion
[ 3084  621  620  617 ] final  150.93 input   60.00 | X-H torsion

> <Gold.Protein.ActiveResidues>
 HIS54   GLU57   HIS58   ALA61   PHE62   ILE64   ARG65   ASP75   ILE76   ILE77  
 ASP78   ILE79   SER80   PRO81   ILE118  PRO119  ALA120  ALA121  ASN122  LYS124 
 GLN125  CYS126  GLY127  CO701   VAL4    GLU5    SER6    PHE7    GLU8    LEU9   
 HIS11   ARG20   HIS21   CYS22   GLY23   VAL24   HIS25   LYS35   ARG39   MET82  
 GLY83   CYS84   TYR89  

> <Gold.Protein.RotatedAtoms>
  -21.5731   37.7574  -16.2373 H   0  0  0  0  0  0  0  0  0  0  0  0  # atno 2649 bound_to 1223
  -20.5551   37.5008  -17.5198 H   0  0  0  0  0  0  0  0  0  0  0  0  # atno 2650 bound_to 1223
  -18.0435   27.6148  -13.5113 H   0  0  0  0  0  0  0  0  0  0  0  0  # atno 3084 bound_to 621 
  -28.8477   38.3113  -28.0075 H   0  0  0  0  0  0  0  0  0  0  0  0  # atno 3412 bound_to 950 
  -27.6675   37.7652  -29.0352 H   0  0  0  0  0  0  0  0  0  0  0  0  # atno 3413 bound_to 950 
  -28.3153   39.2763  -29.2454 H   0  0  0  0  0  0  0  0  0  0  0  0  # atno 3414 bound_to 950 
  -24.3628   32.3142  -20.0065 H   0  0  0  0  0  0  0  0  0  0  0  0  # atno 3476 bound_to 1244
  -20.4317   31.7960  -18.8785 H   0  0  0  0  0  0  0  0  0  0  0  0  # atno 4380 bound_to 1912
  -23.0325   31.4017  -20.2208 LP  0  0  0  0  0  0  0  0  0  0  0  0  # atno 4866 bound_to 1244
  -23.5928   32.3324  -21.4400 LP  0  0  0  0  0  0  0  0  0  0  0  0  # atno 4867 bound_to 1244
  -20.4972   38.9182  -16.6864 LP  0  0  0  0  0  0  0  0  0  0  0  0  # atno 4874 bound_to 1223
  -21.1735   30.6628  -19.7804 LP  0  0  0  0  0  0  0  0  0  0  0  0  # atno 4875 bound_to 1912
  -19.8302   31.4045  -20.3389 LP  0  0  0  0  0  0  0  0  0  0  0  0  # atno 4876 bound_to 1912
  -18.9417   28.8478  -12.9445 LP  0  0  0  0  0  0  0  0  0  0  0  0  # atno 4881 bound_to 621 
  -19.6024   27.7510  -13.9580 LP  0  0  0  0  0  0  0  0  0  0  0  0  # atno 4882 bound_to 621 

$$$$
Compound 192|Decoys_protonated|sdf|192|dock4
  -GOLD-   6122416223D 1   1.00000     0.00000

 37 38  0  0  0  0  0  0  0  0  1 V2000
  -22.8796   33.9698  -17.3205 S   0  0  0  0  0  0  0  0  0  0  0  0
  -22.1679   32.7082  -16.4992 C   0  0  0  0  0  0  0  0  0  0  0  0
  -22.5910   31.4178  -16.7436 N   0  0  0  0  0  0  0  0  0  0  0  0
  -21.1715   32.7877  -15.5660 N   0  0  0  0  0  0  0  0  0  0  0  0
  -23.6132   31.1326  -17.6764 N   0  0  0  0  0  0  0  0  0  0  0  0
  -20.4474   33.9647  -15.0989 C   0  0  0  0  0  0  0  0  0  0  0  0
  -24.8904   31.7455  -17.2544 C   0  0  0  0  0  0  0  0  0  0  0  0
  -23.7957   29.6724  -17.8185 C   0  0  0  0  0  0  0  0  0  0  0  0
  -19.5498   33.5899  -13.9136 C   0  0  0  0  0  0  0  0  0  0  0  0
  -19.6213   34.5719  -16.2400 C   0  0  0  0  0  0  0  0  0  0  0  0
  -26.0147   31.3849  -18.2343 C   0  0  0  0  0  0  0  0  0  0  0  0
  -24.9463   29.3614  -18.7848 C   0  0  0  0  0  0  0  0  0  0  0  0
  -18.7196   34.7787  -13.4375 C   0  0  0  0  0  0  0  0  0  0  0  0
  -18.7890   35.7592  -15.7625 C   0  0  0  0  0  0  0  0  0  0  0  0
  -26.1703   29.9636  -18.3428 O   0  0  0  0  0  0  0  0  0  0  0  0
  -17.9055   35.3869  -14.5756 C   0  0  0  0  0  0  0  0  0  0  0  0
  -22.1399   30.6698  -16.2213 H   0  0  0  0  0  0  0  0  0  0  0  0
  -20.8835   31.8696  -15.2420 H   0  0  0  0  0  0  0  0  0  0  0  0
  -21.1758   34.7089  -14.7563 H   0  0  0  0  0  0  0  0  0  0  0  0
  -25.1603   31.3934  -16.2499 H   0  0  0  0  0  0  0  0  0  0  0  0
  -24.7851   32.8358  -17.2138 H   0  0  0  0  0  0  0  0  0  0  0  0
  -24.0158   29.2263  -16.8395 H   0  0  0  0  0  0  0  0  0  0  0  0
  -22.8742   29.2167  -18.1986 H   0  0  0  0  0  0  0  0  0  0  0  0
  -18.8781   32.7688  -14.1974 H   0  0  0  0  0  0  0  0  0  0  0  0
  -20.1631   33.2152  -13.0850 H   0  0  0  0  0  0  0  0  0  0  0  0
  -18.9558   33.8083  -16.6639 H   0  0  0  0  0  0  0  0  0  0  0  0
  -20.2787   34.8940  -17.0563 H   0  0  0  0  0  0  0  0  0  0  0  0
  -25.8258   31.8047  -19.2297 H   0  0  0  0  0  0  0  0  0  0  0  0
  -26.9644   31.7947  -17.8759 H   0  0  0  0  0  0  0  0  0  0  0  0
  -24.7190   29.7084  -19.8000 H   0  0  0  0  0  0  0  0  0  0  0  0
  -25.1086   28.2799  -18.8319 H   0  0  0  0  0  0  0  0  0  0  0  0
  -18.0476   34.4603  -12.6327 H   0  0  0  0  0  0  0  0  0  0  0  0
  -19.3846   35.5422  -13.0153 H   0  0  0  0  0  0  0  0  0  0  0  0
  -19.4572   36.5809  -15.4768 H   0  0  0  0  0  0  0  0  0  0  0  0
  -18.1652   36.1262  -16.5852 H   0  0  0  0  0  0  0  0  0  0  0  0
  -17.3764   36.2766  -14.2163 H   0  0  0  0  0  0  0  0  0  0  0  0
  -17.1416   34.6700  -14.9008 H   0  0  0  0  0  0  0  0  0  0  0  0
  1  2  2  0  0  0  0
  2  3  1  0  0  0  0
  2  4  1  0  0  0  0
  3  5  1  0  0  0  0
  3 17  1  0  0  0  0
  4  6  1  0  0  0  0
  4 18  1  0  0  0  0
  5  7  1  0  0  0  0
  5  8  1  0  0  0  0
  6  9  1  0  0  0  0
  6 10  1  0  0  0  0
  6 19  1  0  0  0  0
  7 11  1  0  0  0  0
  7 20  1  0  0  0  0
  7 21  1  0  0  0  0
  8 12  1  0  0  0  0
  8 22  1  0  0  0  0
  8 23  1  0  0  0  0
  9 13  1  0  0  0  0
  9 24  1  0  0  0  0
  9 25  1  0  0  0  0
 10 14  1  0  0  0  0
 10 26  1  0  0  0  0
 10 27  1  0  0  0  0
 11 15  1  0  0  0  0
 11 28  1  0  0  0  0
 11 29  1  0  0  0  0
 12 15  1  0  0  0  0
 12 30  1  0  0  0  0
 12 31  1  0  0  0  0
 13 16  1  0  0  0  0
 13 32  1  0  0  0  0
 13 33  1  0  0  0  0
 14 16  1  0  0  0  0
 14 34  1  0  0  0  0
 14 35  1  0  0  0  0
 16 36  1  0  0  0  0
 16 37  1  0  0  0  0
M  END
>  <Column 1>
S=C(NC1CCCCC1)NN1CCOCC1 ZINC000000037285

>  <Total Molweight>
243.374

>  <cLogP>
0.1451

>  <cLogS>
-2.087

>  <H-Acceptors>
4

>  <H-Donors>
2

>  <Total Surface Area>
198.77

>  <MMFF94 Energy>
33.962

> <Gold.Version>
5.8.1

> <Gold.Id.Protein>
ID|2FQT|mol2

> <Gold.PLP.Fitness>
43.4488

> <Gold.PLP.PLP>
-34.9591

> <Gold.PLP.part.hbond>
-1.0000

> <Gold.PLP.part.metal>
-1.0000

> <Gold.PLP.part.buried>
-5.8234

> <Gold.PLP.part.nonpolar>
-27.0430

> <Gold.PLP.part.repulsive>
0.1157

> <Gold.PLP.ligand.clash>
0.0259

> <Gold.PLP.ligand.torsion>
0.0542

> <Gold.PLP.Chemscore.Hbond>
0.9000

> <Gold.PLP.Chemscore.CHOScore>
0.0000

> <Gold.PLP.Chemscore.Metal>
0.9865

> <Gold.Chemscore.Hbonds>
donor molecule, donor type, donor heavy atom, donor atom, acceptor molecule, acceptor atom, score
      P1  H  1244  3476       L1     5  0.90
      P1  M  1222  1222       L1    15  0.99

> <Gold.PLP.Chemscore.Internal.Correction>
0.0048

> <Gold.Protein.RotatedTorsions>
[ 3412  950  949  948 ] final   17.35 input   60.00 | X-H torsion
[ 3476 1244 1243 1240 ] final  176.27 input   60.00 | X-H torsion
[ 2649 1223 1224 1225 ] final -152.00 input   60.00 | X-H torsion
[ 4380 1912 1911 1909 ] final  157.86 input   60.00 | X-H torsion
[ 3084  621  620  617 ] final -172.84 input   60.00 | X-H torsion

> <Gold.Protein.ActiveResidues>
 HIS54   GLU57   HIS58   ALA61   PHE62   ILE64   ARG65   ASP75   ILE76   ILE77  
 ASP78   ILE79   SER80   PRO81   ILE118  PRO119  ALA120  ALA121  ASN122  LYS124 
 GLN125  CYS126  GLY127  CO701   VAL4    GLU5    SER6    PHE7    GLU8    LEU9   
 HIS11   ARG20   HIS21   CYS22   GLY23   VAL24   HIS25   LYS35   ARG39   MET82  
 GLY83   CYS84   TYR89  

> <Gold.Protein.RotatedAtoms>
  -21.5071   38.0901  -16.0974 H   0  0  0  0  0  0  0  0  0  0  0  0  # atno 2649 bound_to 1223
  -20.8141   37.2875  -17.3713 H   0  0  0  0  0  0  0  0  0  0  0  0  # atno 2650 bound_to 1223
  -18.4254   27.3311  -13.8467 H   0  0  0  0  0  0  0  0  0  0  0  0  # atno 3084 bound_to 621 
  -28.6168   37.9317  -28.0343 H   0  0  0  0  0  0  0  0  0  0  0  0  # atno 3412 bound_to 950 
  -27.5944   38.0914  -29.3291 H   0  0  0  0  0  0  0  0  0  0  0  0  # atno 3413 bound_to 950 
  -28.6194   39.3296  -28.9247 H   0  0  0  0  0  0  0  0  0  0  0  0  # atno 3414 bound_to 950 
  -23.5779   31.6043  -19.7185 H   0  0  0  0  0  0  0  0  0  0  0  0  # atno 3476 bound_to 1244
  -19.7092   31.7843  -19.8624 H   0  0  0  0  0  0  0  0  0  0  0  0  # atno 4380 bound_to 1912
  -23.0409   31.8333  -21.2375 LP  0  0  0  0  0  0  0  0  0  0  0  0  # atno 4866 bound_to 1244
  -24.3749   32.6158  -20.7133 LP  0  0  0  0  0  0  0  0  0  0  0  0  # atno 4867 bound_to 1244
  -20.3071   38.8005  -16.9704 LP  0  0  0  0  0  0  0  0  0  0  0  0  # atno 4874 bound_to 1223
  -20.9268   31.4221  -18.8455 LP  0  0  0  0  0  0  0  0  0  0  0  0  # atno 4875 bound_to 1912
  -20.8046   30.6568  -20.2829 LP  0  0  0  0  0  0  0  0  0  0  0  0  # atno 4876 bound_to 1912
  -18.3920   28.6505  -12.8948 LP  0  0  0  0  0  0  0  0  0  0  0  0  # atno 4881 bound_to 621 
  -19.7676   28.2341  -13.6700 LP  0  0  0  0  0  0  0  0  0  0  0  0  # atno 4882 bound_to 621 

$$$$
Compound 193|Decoys_protonated|sdf|193|dock2
  -GOLD-   6122416223D 1   1.00000     0.00000

 22 23  0  0  0  0  0  0  0  0  1 V2000
  -21.8897   32.6329  -16.8867 S   0  0  0  0  0  0  0  0  0  0  0  0
  -22.7062   31.1940  -16.4574 C   0  0  0  0  0  0  0  0  0  0  0  0
  -20.6157   32.3278  -15.7875 C   0  0  0  0  0  0  0  0  0  0  0  0
  -22.0138   30.4906  -15.4914 C   0  0  0  0  0  0  0  0  0  0  0  0
  -23.9588   30.8219  -17.0776 C   0  0  0  0  0  0  0  0  0  0  0  0
  -20.8079   31.1456  -15.1045 C   0  0  0  0  0  0  0  0  0  0  0  0
  -19.4902   33.2974  -15.6695 C   0  0  0  0  0  0  0  0  0  0  0  0
  -24.0400   30.4684  -18.3183 N   0  0  0  0  0  0  0  0  0  0  0  0
  -25.2873   30.1011  -18.7019 N   0  0  0  0  0  0  0  0  0  0  0  0
  -26.2053   29.7537  -17.7831 N   0  0  0  0  0  0  0  0  0  0  0  0
  -25.8886   30.0409  -19.9663 C   0  0  0  0  0  0  0  0  0  0  0  0
  -27.2765   29.3744  -18.4661 N   0  0  0  0  0  0  0  0  0  0  0  0
  -27.0928   29.5372  -19.8167 N   0  0  0  0  0  0  0  0  0  0  0  0
  -25.3117   30.4694  -21.1115 N   0  0  0  0  0  0  0  0  0  0  0  0
  -22.3513   29.5501  -15.0721 H   0  0  0  0  0  0  0  0  0  0  0  0
  -24.8454   30.8834  -16.4170 H   0  0  0  0  0  0  0  0  0  0  0  0
  -20.1179   30.7672  -14.3593 H   0  0  0  0  0  0  0  0  0  0  0  0
  -18.7590   32.9588  -14.9279 H   0  0  0  0  0  0  0  0  0  0  0  0
  -19.8555   34.2803  -15.3548 H   0  0  0  0  0  0  0  0  0  0  0  0
  -18.9699   33.4069  -16.6266 H   0  0  0  0  0  0  0  0  0  0  0  0
  -24.3770   30.8654  -21.0703 H   0  0  0  0  0  0  0  0  0  0  0  0
  -25.6383   30.2016  -22.0332 H   0  0  0  0  0  0  0  0  0  0  0  0
  1  2  1  0  0  0  0
  1  3  1  0  0  0  0
  2  4  2  0  0  0  0
  2  5  1  0  0  0  0
  3  6  2  0  0  0  0
  3  7  1  0  0  0  0
  4  6  1  0  0  0  0
  4 15  1  0  0  0  0
  5  8  2  0  0  0  0
  5 16  1  0  0  0  0
  6 17  1  0  0  0  0
  7 18  1  0  0  0  0
  7 19  1  0  0  0  0
  7 20  1  0  0  0  0
  8  9  1  0  0  0  0
  9 10  1  0  0  0  0
  9 11  1  0  0  0  0
 10 12  2  0  0  0  0
 11 13  2  0  0  0  0
 11 14  1  0  0  0  0
 12 13  1  0  0  0  0
 14 21  1  0  0  0  0
 14 22  1  0  0  0  0
M  END
>  <Column 1>
Cc1ccc(/C=N/n2nnnc2N)s1 ZINC000000037734

>  <Total Molweight>
208.249

>  <cLogP>
1.5192

>  <cLogS>
-4.251

>  <H-Acceptors>
6

>  <H-Donors>
1

>  <Total Surface Area>
159.98

>  <MMFF94 Energy>
48.032

> <Gold.Version>
5.8.1

> <Gold.Id.Protein>
ID|2FQT|mol2

> <Gold.PLP.Fitness>
63.1678

> <Gold.PLP.PLP>
-38.0455

> <Gold.PLP.part.hbond>
-3.9422

> <Gold.PLP.part.metal>
-2.1738

> <Gold.PLP.part.buried>
-6.7800

> <Gold.PLP.part.nonpolar>
-26.1830

> <Gold.PLP.part.repulsive>
0.5305

> <Gold.PLP.ligand.clash>
0.0000

> <Gold.PLP.ligand.torsion>
0.7449

> <Gold.PLP.Chemscore.Hbond>
2.8800

> <Gold.PLP.Chemscore.CHOScore>
0.0000

> <Gold.PLP.Chemscore.Metal>
2.9951

> <Gold.Chemscore.Hbonds>
donor molecule, donor type, donor heavy atom, donor atom, acceptor molecule, acceptor atom, score
      L1  H    14    22       P1  1290  0.88
      P1  H   966  3428       L1    13  1.00
      P1  H  1244  3476       L1     8  1.00
      P1  M  1222  1222       L1    10  1.00
      P1  M  1222  1222       L1    12  1.00
      P1  M  1222  1222       L1    13  1.00

> <Gold.PLP.Chemscore.Internal.Correction>
0.0016

> <Gold.Protein.RotatedTorsions>
[ 3412  950  949  948 ] final   96.09 input   60.00 | X-H torsion
[ 3476 1244 1243 1240 ] final  165.19 input   60.00 | X-H torsion
[ 2649 1223 1224 1225 ] final -151.51 input   60.00 | X-H torsion
[ 4380 1912 1911 1909 ] final  -58.07 input   60.00 | X-H torsion
[ 3084  621  620  617 ] final  150.13 input   60.00 | X-H torsion

> <Gold.Protein.ActiveResidues>
 HIS54   GLU57   HIS58   ALA61   PHE62   ILE64   ARG65   ASP75   ILE76   ILE77  
 ASP78   ILE79   SER80   PRO81   ILE118  PRO119  ALA120  ALA121  ASN122  LYS124 
 GLN125  CYS126  GLY127  CO701   VAL4    GLU5    SER6    PHE7    GLU8    LEU9   
 HIS11   ARG20   HIS21   CYS22   GLY23   VAL24   HIS25   LYS35   ARG39   MET82  
 GLY83   CYS84   TYR89  

> <Gold.Protein.RotatedAtoms>
  -21.5096   38.0826  -16.0994 H   0  0  0  0  0  0  0  0  0  0  0  0  # atno 2649 bound_to 1223
  -20.8081   37.2911  -17.3756 H   0  0  0  0  0  0  0  0  0  0  0  0  # atno 2650 bound_to 1223
  -18.0383   27.6237  -13.5031 H   0  0  0  0  0  0  0  0  0  0  0  0  # atno 3084 bound_to 621 
  -27.7628   37.6484  -28.8494 H   0  0  0  0  0  0  0  0  0  0  0  0  # atno 3412 bound_to 950 
  -28.1451   39.1723  -29.3775 H   0  0  0  0  0  0  0  0  0  0  0  0  # atno 3413 bound_to 950 
  -28.9226   38.5320  -28.0612 H   0  0  0  0  0  0  0  0  0  0  0  0  # atno 3414 bound_to 950 
  -23.4325   31.5258  -19.7919 H   0  0  0  0  0  0  0  0  0  0  0  0  # atno 3476 bound_to 1244
  -21.0585   30.6283  -19.9858 H   0  0  0  0  0  0  0  0  0  0  0  0  # atno 4380 bound_to 1912
  -23.1410   31.9495  -21.3357 LP  0  0  0  0  0  0  0  0  0  0  0  0  # atno 4866 bound_to 1244
  -24.4214   32.5787  -20.5412 LP  0  0  0  0  0  0  0  0  0  0  0  0  # atno 4867 bound_to 1244
  -20.3105   38.8044  -16.9642 LP  0  0  0  0  0  0  0  0  0  0  0  0  # atno 4874 bound_to 1223
  -19.7436   31.5658  -20.1859 LP  0  0  0  0  0  0  0  0  0  0  0  0  # atno 4875 bound_to 1912
  -20.6289   31.6773  -18.8183 LP  0  0  0  0  0  0  0  0  0  0  0  0  # atno 4876 bound_to 1912
  -18.9543   28.8488  -12.9482 LP  0  0  0  0  0  0  0  0  0  0  0  0  # atno 4881 bound_to 621 
  -19.5950   27.7410  -13.9625 LP  0  0  0  0  0  0  0  0  0  0  0  0  # atno 4882 bound_to 621 

$$$$
Compound 194|Decoys_protonated|sdf|194|dock2
  -GOLD-   6122416223D 1   1.00000     0.00000

 18 18  0  0  0  0  0  0  0  0  1 V2000
  -18.4570   34.8466  -18.1793 F   0  0  0  0  0  0  0  0  0  0  0  0
  -19.6157   34.4589  -17.6262 C   0  0  0  0  0  0  0  0  0  0  0  0
  -20.6732   35.2653  -17.7972 N   0  0  0  0  0  0  0  0  0  0  0  0
  -19.6377   33.2796  -16.9331 C   0  0  0  0  0  0  0  0  0  0  0  0
  -21.8075   34.8424  -17.2304 C   0  0  0  0  0  0  0  0  0  0  0  0
  -20.8543   32.9538  -16.3996 C   0  0  0  0  0  0  0  0  0  0  0  0
  -22.9564   35.5943  -17.3440 O   0  0  0  0  0  0  0  0  0  0  0  0
  -21.9535   33.7113  -16.5303 N   0  0  0  0  0  0  0  0  0  0  0  0
  -20.9115   31.7683  -15.6929 O   0  0  0  0  0  0  0  0  0  0  0  0
  -23.5001   35.9788  -16.0883 C   0  0  0  0  0  0  0  0  0  0  0  0
  -22.2031   31.4965  -15.1551 C   0  0  0  0  0  0  0  0  0  0  0  0
  -18.7611   32.6616  -16.8208 H   0  0  0  0  0  0  0  0  0  0  0  0
  -24.4023   36.5670  -16.2816 H   0  0  0  0  0  0  0  0  0  0  0  0
  -23.7948   35.1046  -15.4973 H   0  0  0  0  0  0  0  0  0  0  0  0
  -22.8036   36.6146  -15.5304 H   0  0  0  0  0  0  0  0  0  0  0  0
  -22.1463   30.5448  -14.6181 H   0  0  0  0  0  0  0  0  0  0  0  0
  -22.5036   32.2671  -14.4369 H   0  0  0  0  0  0  0  0  0  0  0  0
  -22.9484   31.3862  -15.9505 H   0  0  0  0  0  0  0  0  0  0  0  0
  1  2  1  0  0  0  0
  2  3  2  0  0  0  0
  2  4  1  0  0  0  0
  3  5  1  0  0  0  0
  4  6  2  0  0  0  0
  4 12  1  0  0  0  0
  5  7  1  0  0  0  0
  5  8  2  0  0  0  0
  6  9  1  0  0  0  0
  6  8  1  0  0  0  0
  7 10  1  0  0  0  0
  9 11  1  0  0  0  0
 10 13  1  0  0  0  0
 10 14  1  0  0  0  0
 10 15  1  0  0  0  0
 11 16  1  0  0  0  0
 11 17  1  0  0  0  0
 11 18  1  0  0  0  0
M  END
>  <Column 1>
COc1cc(F)nc(OC)n1 ZINC000000039053

>  <Total Molweight>
158.132

>  <cLogP>
1.1295

>  <cLogS>
-2.283

>  <H-Acceptors>
4

>  <H-Donors>
0

>  <Total Surface Area>
121.65

>  <MMFF94 Energy>
-86.234

> <Gold.Version>
5.8.1

> <Gold.Id.Protein>
ID|2FQT|mol2

> <Gold.PLP.Fitness>
34.0210

> <Gold.PLP.PLP>
-28.0270

> <Gold.PLP.part.hbond>
-3.3680

> <Gold.PLP.part.metal>
0.0000

> <Gold.PLP.part.buried>
-6.3665

> <Gold.PLP.part.nonpolar>
-19.4494

> <Gold.PLP.part.repulsive>
0.1896

> <Gold.PLP.ligand.clash>
0.0000

> <Gold.PLP.ligand.torsion>
0.0030

> <Gold.PLP.Chemscore.Hbond>
2.0000

> <Gold.PLP.Chemscore.CHOScore>
0.0000

> <Gold.PLP.Chemscore.Metal>
0.0000

> <Gold.Chemscore.Hbonds>
donor molecule, donor type, donor heavy atom, donor atom, acceptor molecule, acceptor atom, score
      P1  H  1223  2650       L1     3  1.00
      P1  H  1239  3336       L1     3  1.00

> <Gold.PLP.Chemscore.Internal.Correction>
0.0000

> <Gold.Protein.RotatedTorsions>
[ 3412  950  949  948 ] final  121.41 input   60.00 | X-H torsion
[ 3476 1244 1243 1240 ] final  108.86 input   60.00 | X-H torsion
[ 2649 1223 1224 1225 ] final -150.49 input   60.00 | X-H torsion
[ 4380 1912 1911 1909 ] final -149.55 input   60.00 | X-H torsion
[ 3084  621  620  617 ] final  104.74 input   60.00 | X-H torsion

> <Gold.Protein.ActiveResidues>
 HIS54   GLU57   HIS58   ALA61   PHE62   ILE64   ARG65   ASP75   ILE76   ILE77  
 ASP78   ILE79   SER80   PRO81   ILE118  PRO119  ALA120  ALA121  ASN122  LYS124 
 GLN125  CYS126  GLY127  CO701   VAL4    GLU5    SER6    PHE7    GLU8    LEU9   
 HIS11   ARG20   HIS21   CYS22   GLY23   VAL24   HIS25   LYS35   ARG39   MET82  
 GLY83   CYS84   TYR89  

> <Gold.Protein.RotatedAtoms>
  -21.5147   38.0670  -16.1038 H   0  0  0  0  0  0  0  0  0  0  0  0  # atno 2649 bound_to 1223
  -20.7957   37.2987  -17.3843 H   0  0  0  0  0  0  0  0  0  0  0  0  # atno 2650 bound_to 1223
  -18.0218   28.2084  -13.0793 H   0  0  0  0  0  0  0  0  0  0  0  0  # atno 3084 bound_to 621 
  -27.6202   37.8836  -29.1660 H   0  0  0  0  0  0  0  0  0  0  0  0  # atno 3412 bound_to 950 
  -28.4441   39.3212  -29.1238 H   0  0  0  0  0  0  0  0  0  0  0  0  # atno 3413 bound_to 950 
  -28.7662   38.1480  -27.9982 H   0  0  0  0  0  0  0  0  0  0  0  0  # atno 3414 bound_to 950 
  -22.9245   31.4449  -20.5105 H   0  0  0  0  0  0  0  0  0  0  0  0  # atno 3476 bound_to 1244
  -19.9550   31.2410  -20.4389 H   0  0  0  0  0  0  0  0  0  0  0  0  # atno 4380 bound_to 1912
  -23.8497   32.4876  -21.3500 LP  0  0  0  0  0  0  0  0  0  0  0  0  # atno 4866 bound_to 1244
  -24.2242   32.1220  -19.8032 LP  0  0  0  0  0  0  0  0  0  0  0  0  # atno 4867 bound_to 1244
  -20.3177   38.8123  -16.9513 LP  0  0  0  0  0  0  0  0  0  0  0  0  # atno 4874 bound_to 1223
  -20.2468   31.8895  -18.9752 LP  0  0  0  0  0  0  0  0  0  0  0  0  # atno 4875 bound_to 1912
  -21.2370   30.7366  -19.5728 LP  0  0  0  0  0  0  0  0  0  0  0  0  # atno 4876 bound_to 1912
  -19.5688   28.6661  -13.2921 LP  0  0  0  0  0  0  0  0  0  0  0  0  # atno 4881 bound_to 621 
  -18.9972   27.3348  -14.0454 LP  0  0  0  0  0  0  0  0  0  0  0  0  # atno 4882 bound_to 621 

$$$$
Compound 195|Decoys_protonated|sdf|195|dock7
  -GOLD-   6122416223D 1   1.00000     0.00000

 29 30  0  0  0  0  0  0  0  0  1 V2000
  -20.6329   31.4354  -15.3864 N   0  0  0  0  0  0  0  0  0  0  0  0
  -20.8949   32.4629  -16.1904 C   0  0  0  0  0  0  0  0  0  0  0  0
  -21.6445   30.6339  -15.0961 C   0  0  0  0  0  0  0  0  0  0  0  0
  -22.1067   32.6876  -16.6941 N   0  0  0  0  0  0  0  0  0  0  0  0
  -19.8700   33.3283  -16.5236 N   0  0  0  0  0  0  0  0  0  0  0  0
  -22.8797   30.7757  -15.5444 N   0  0  0  0  0  0  0  0  0  0  0  0
  -21.3953   29.5768  -14.2693 N   0  0  0  0  0  0  0  0  0  0  0  0
  -23.0633   31.8268  -16.3421 C   0  0  0  0  0  0  0  0  0  0  0  0
  -20.0352   34.1829  -17.6794 C   0  0  0  0  0  0  0  0  0  0  0  0
  -18.9054   33.6748  -15.5015 C   0  0  0  0  0  0  0  0  0  0  0  0
  -24.4448   32.0574  -16.8854 C   0  0  0  0  0  0  0  0  0  0  0  0
  -24.9286   30.8817  -17.5821 N   0  0  0  0  0  0  0  0  0  0  0  0
  -26.0794   30.8060  -18.3149 C   0  0  0  0  0  0  0  0  0  0  0  0
  -24.3580   29.6383  -17.5769 C   0  0  0  0  0  0  0  0  0  0  0  0
  -26.2739   29.5909  -18.7759 N   0  0  0  0  0  0  0  0  0  0  0  0
  -25.2056   28.8577  -18.3279 C   0  0  0  0  0  0  0  0  0  0  0  0
  -20.4587   29.4604  -13.9234 H   0  0  0  0  0  0  0  0  0  0  0  0
  -22.1616   28.9861  -13.9996 H   0  0  0  0  0  0  0  0  0  0  0  0
  -20.2571   33.6011  -18.5814 H   0  0  0  0  0  0  0  0  0  0  0  0
  -20.8397   34.9088  -17.5169 H   0  0  0  0  0  0  0  0  0  0  0  0
  -19.1186   34.7454  -17.8887 H   0  0  0  0  0  0  0  0  0  0  0  0
  -18.4399   32.7822  -15.0681 H   0  0  0  0  0  0  0  0  0  0  0  0
  -19.3760   34.2561  -14.7007 H   0  0  0  0  0  0  0  0  0  0  0  0
  -18.0919   34.2804  -15.9162 H   0  0  0  0  0  0  0  0  0  0  0  0
  -24.4528   32.8947  -17.5922 H   0  0  0  0  0  0  0  0  0  0  0  0
  -25.1459   32.2915  -16.0765 H   0  0  0  0  0  0  0  0  0  0  0  0
  -26.7304   31.6555  -18.4810 H   0  0  0  0  0  0  0  0  0  0  0  0
  -23.4306   29.4192  -17.0666 H   0  0  0  0  0  0  0  0  0  0  0  0
  -25.1049   27.8072  -18.5680 H   0  0  0  0  0  0  0  0  0  0  0  0
  1  2  2  0  0  0  0
  1  3  1  0  0  0  0
  2  4  1  0  0  0  0
  2  5  1  0  0  0  0
  3  6  2  0  0  0  0
  3  7  1  0  0  0  0
  4  8  2  0  0  0  0
  5  9  1  0  0  0  0
  5 10  1  0  0  0  0
  6  8  1  0  0  0  0
  7 17  1  0  0  0  0
  7 18  1  0  0  0  0
  8 11  1  0  0  0  0
  9 19  1  0  0  0  0
  9 20  1  0  0  0  0
  9 21  1  0  0  0  0
 10 22  1  0  0  0  0
 10 23  1  0  0  0  0
 10 24  1  0  0  0  0
 11 12  1  0  0  0  0
 11 25  1  0  0  0  0
 11 26  1  0  0  0  0
 12 13  1  0  0  0  0
 12 14  1  0  0  0  0
 13 15  2  0  0  0  0
 13 27  1  0  0  0  0
 14 16  2  0  0  0  0
 14 28  1  0  0  0  0
 15 16  1  0  0  0  0
 16 29  1  0  0  0  0
M  END
>  <Column 1>
CN(C)c1nc(N)nc(Cn2ccnc2)n1 ZINC000000039075

>  <Total Molweight>
219.251

>  <cLogP>
-0.5292

>  <cLogS>
-0.195

>  <H-Acceptors>
7

>  <H-Donors>
1

>  <Total Surface Area>
174.36

>  <MMFF94 Energy>
-190.41

> <Gold.Version>
5.8.1

> <Gold.Id.Protein>
ID|2FQT|mol2

> <Gold.PLP.Fitness>
51.0206

> <Gold.PLP.PLP>
-39.7938

> <Gold.PLP.part.hbond>
-2.8133

> <Gold.PLP.part.metal>
-1.0000

> <Gold.PLP.part.buried>
-3.2126

> <Gold.PLP.part.nonpolar>
-34.2370

> <Gold.PLP.part.repulsive>
0.8554

> <Gold.PLP.ligand.clash>
0.0000

> <Gold.PLP.ligand.torsion>
0.4691

> <Gold.PLP.Chemscore.Hbond>
1.4405

> <Gold.PLP.Chemscore.CHOScore>
0.5909

> <Gold.PLP.Chemscore.Metal>
0.9951

> <Gold.Chemscore.Hbonds>
donor molecule, donor type, donor heavy atom, donor atom, acceptor molecule, acceptor atom, score
      L1  H     7    17       P1   621  0.45
      L1  H     7    18       P1   427  0.99
      L1  C    13    27       P1   437  0.59
      P1  M  1222  1222       L1    15  1.00

> <Gold.PLP.Chemscore.Internal.Correction>
0.1003

> <Gold.Protein.RotatedTorsions>
[ 3412  950  949  948 ] final  -92.01 input   60.00 | X-H torsion
[ 3476 1244 1243 1240 ] final  -66.34 input   60.00 | X-H torsion
[ 2649 1223 1224 1225 ] final  130.42 input   60.00 | X-H torsion
[ 4380 1912 1911 1909 ] final  -73.25 input   60.00 | X-H torsion
[ 3084  621  620  617 ] final  167.18 input   60.00 | X-H torsion

> <Gold.Protein.ActiveResidues>
 HIS54   GLU57   HIS58   ALA61   PHE62   ILE64   ARG65   ASP75   ILE76   ILE77  
 ASP78   ILE79   SER80   PRO81   ILE118  PRO119  ALA120  ALA121  ASN122  LYS124 
 GLN125  CYS126  GLY127  CO701   VAL4    GLU5    SER6    PHE7    GLU8    LEU9   
 HIS11   ARG20   HIS21   CYS22   GLY23   VAL24   HIS25   LYS35   ARG39   MET82  
 GLY83   CYS84   TYR89  

> <Gold.Protein.RotatedAtoms>
  -20.7161   38.9266  -16.4325 H   0  0  0  0  0  0  0  0  0  0  0  0  # atno 2649 bound_to 1223
  -21.5430   37.4901  -16.4411 H   0  0  0  0  0  0  0  0  0  0  0  0  # atno 2650 bound_to 1223
  -18.1822   27.4570  -13.6722 H   0  0  0  0  0  0  0  0  0  0  0  0  # atno 3084 bound_to 621 
  -28.7224   39.2975  -28.7840 H   0  0  0  0  0  0  0  0  0  0  0  0  # atno 3412 bound_to 950 
  -28.5017   37.8086  -28.0899 H   0  0  0  0  0  0  0  0  0  0  0  0  # atno 3413 bound_to 950 
  -27.6064   38.2466  -29.4142 H   0  0  0  0  0  0  0  0  0  0  0  0  # atno 3414 bound_to 950 
  -24.3819   32.6066  -20.6715 H   0  0  0  0  0  0  0  0  0  0  0  0  # atno 3476 bound_to 1244
  -20.9053   30.6346  -20.1799 H   0  0  0  0  0  0  0  0  0  0  0  0  # atno 4380 bound_to 1912
  -23.5436   31.5795  -19.7280 LP  0  0  0  0  0  0  0  0  0  0  0  0  # atno 4866 bound_to 1244
  -23.0625   31.8601  -21.2631 LP  0  0  0  0  0  0  0  0  0  0  0  0  # atno 4867 bound_to 1244
  -20.3683   37.7769  -17.5568 LP  0  0  0  0  0  0  0  0  0  0  0  0  # atno 4874 bound_to 1223
  -19.7035   31.7153  -19.9907 LP  0  0  0  0  0  0  0  0  0  0  0  0  # atno 4875 bound_to 1912
  -20.8234   31.5216  -18.8181 LP  0  0  0  0  0  0  0  0  0  0  0  0  # atno 4876 bound_to 1912
  -18.6856   28.7945  -12.8938 LP  0  0  0  0  0  0  0  0  0  0  0  0  # atno 4881 bound_to 621 
  -19.7189   27.9632  -13.8467 LP  0  0  0  0  0  0  0  0  0  0  0  0  # atno 4882 bound_to 621 

$$$$
Compound 196|Decoys_protonated|sdf|196|dock7
  -GOLD-   6122416223D 1   1.00000     0.00000

 20 20  0  0  0  0  0  0  0  0  1 V2000
  -17.8049   34.0908  -19.0107 F   0  0  0  0  0  0  0  0  0  0  0  0
  -18.7778   33.9081  -18.1047 C   0  0  0  0  0  0  0  0  0  0  0  0
  -18.6557   32.8621  -17.2805 N   0  0  0  0  0  0  0  0  0  0  0  0
  -19.8180   34.7977  -18.0883 C   0  0  0  0  0  0  0  0  0  0  0  0
  -19.6438   32.7030  -16.4027 C   0  0  0  0  0  0  0  0  0  0  0  0
  -20.7814   34.5708  -17.1400 C   0  0  0  0  0  0  0  0  0  0  0  0
  -20.7031   33.5181  -16.3106 N   0  0  0  0  0  0  0  0  0  0  0  0
  -19.6181   31.6583  -15.5222 N   0  0  0  0  0  0  0  0  0  0  0  0
  -21.8865   35.4074  -17.0887 N   0  0  0  0  0  0  0  0  0  0  0  0
  -20.8166   30.9940  -15.1026 C   0  0  0  0  0  0  0  0  0  0  0  0
  -23.1448   34.8737  -16.6209 C   0  0  0  0  0  0  0  0  0  0  0  0
  -19.8623   35.6153  -18.7908 H   0  0  0  0  0  0  0  0  0  0  0  0
  -18.7075   31.3993  -15.1791 H   0  0  0  0  0  0  0  0  0  0  0  0
  -21.7235   36.3975  -16.9678 H   0  0  0  0  0  0  0  0  0  0  0  0
  -21.3382   30.5393  -15.9514 H   0  0  0  0  0  0  0  0  0  0  0  0
  -21.4966   31.6840  -14.5920 H   0  0  0  0  0  0  0  0  0  0  0  0
  -20.5668   30.1933  -14.3995 H   0  0  0  0  0  0  0  0  0  0  0  0
  -23.0708   34.5293  -15.5840 H   0  0  0  0  0  0  0  0  0  0  0  0
  -23.4873   34.0488  -17.2546 H   0  0  0  0  0  0  0  0  0  0  0  0
  -23.9081   35.6574  -16.6578 H   0  0  0  0  0  0  0  0  0  0  0  0
  1  2  1  0  0  0  0
  2  3  2  0  0  0  0
  2  4  1  0  0  0  0
  3  5  1  0  0  0  0
  4  6  2  0  0  0  0
  4 12  1  0  0  0  0
  5  7  2  0  0  0  0
  5  8  1  0  0  0  0
  6  9  1  0  0  0  0
  6  7  1  0  0  0  0
  8 10  1  0  0  0  0
  8 13  1  0  0  0  0
  9 11  1  0  0  0  0
  9 14  1  0  0  0  0
 10 15  1  0  0  0  0
 10 16  1  0  0  0  0
 10 17  1  0  0  0  0
 11 18  1  0  0  0  0
 11 19  1  0  0  0  0
 11 20  1  0  0  0  0
M  END
>  <Column 1>
CNc1cc(F)nc(NC)n1 ZINC000000039518

>  <Total Molweight>
156.163

>  <cLogP>
0.5635

>  <cLogS>
-2.367

>  <H-Acceptors>
4

>  <H-Donors>
2

>  <Total Surface Area>
124.57

>  <MMFF94 Energy>
-147.23

> <Gold.Version>
5.8.1

> <Gold.Id.Protein>
ID|2FQT|mol2

> <Gold.PLP.Fitness>
38.9028

> <Gold.PLP.PLP>
-33.6219

> <Gold.PLP.part.hbond>
-3.2937

> <Gold.PLP.part.metal>
0.0000

> <Gold.PLP.part.buried>
-4.8717

> <Gold.PLP.part.nonpolar>
-26.3166

> <Gold.PLP.part.repulsive>
0.3313

> <Gold.PLP.ligand.clash>
0.0000

> <Gold.PLP.ligand.torsion>
0.4121

> <Gold.PLP.Chemscore.Hbond>
2.0345

> <Gold.PLP.Chemscore.CHOScore>
0.0000

> <Gold.PLP.Chemscore.Metal>
0.0000

> <Gold.Chemscore.Hbonds>
donor molecule, donor type, donor heavy atom, donor atom, acceptor molecule, acceptor atom, score
      L1  H     8    13       P1   606  1.00
      L1  H     9    14       P1  1223  1.00
      P1  H  1466  3954       L1     3  0.03

> <Gold.PLP.Chemscore.Internal.Correction>
0.0015

> <Gold.Protein.RotatedTorsions>
[ 3412  950  949  948 ] final   84.47 input   60.00 | X-H torsion
[ 3476 1244 1243 1240 ] final  -45.79 input   60.00 | X-H torsion
[ 2649 1223 1224 1225 ] final   59.61 input   60.00 | X-H torsion
[ 4380 1912 1911 1909 ] final  104.63 input   60.00 | X-H torsion
[ 3084  621  620  617 ] final   82.10 input   60.00 | X-H torsion

> <Gold.Protein.ActiveResidues>
 HIS54   GLU57   HIS58   ALA61   PHE62   ILE64   ARG65   ASP75   ILE76   ILE77  
 ASP78   ILE79   SER80   PRO81   ILE118  PRO119  ALA120  ALA121  ASN122  LYS124 
 GLN125  CYS126  GLY127  CO701   VAL4    GLU5    SER6    PHE7    GLU8    LEU9   
 HIS11   ARG20   HIS21   CYS22   GLY23   VAL24   HIS25   LYS35   ARG39   MET82  
 GLY83   CYS84   TYR89  

> <Gold.Protein.RotatedAtoms>
  -20.1744   38.4995  -17.3005 H   0  0  0  0  0  0  0  0  0  0  0  0  # atno 2649 bound_to 1223
  -21.2883   38.5046  -16.0732 H   0  0  0  0  0  0  0  0  0  0  0  0  # atno 2650 bound_to 1223
  -18.2126   28.4916  -12.9431 H   0  0  0  0  0  0  0  0  0  0  0  0  # atno 3084 bound_to 621 
  -27.8638   37.5904  -28.6945 H   0  0  0  0  0  0  0  0  0  0  0  0  # atno 3412 bound_to 950 
  -28.0128   39.0548  -29.4566 H   0  0  0  0  0  0  0  0  0  0  0  0  # atno 3413 bound_to 950 
  -28.9539   38.7076  -28.1370 H   0  0  0  0  0  0  0  0  0  0  0  0  # atno 3414 bound_to 950 
  -24.2394   32.6256  -20.9730 H   0  0  0  0  0  0  0  0  0  0  0  0  # atno 3476 bound_to 1244
  -20.0737   31.9365  -19.1225 H   0  0  0  0  0  0  0  0  0  0  0  0  # atno 4380 bound_to 1912
  -23.8201   31.7590  -19.6610 LP  0  0  0  0  0  0  0  0  0  0  0  0  # atno 4866 bound_to 1244
  -22.9296   31.6614  -21.0264 LP  0  0  0  0  0  0  0  0  0  0  0  0  # atno 4867 bound_to 1244
  -21.1529   37.1982  -17.0640 LP  0  0  0  0  0  0  0  0  0  0  0  0  # atno 4874 bound_to 1223
  -21.2555   30.8450  -19.3676 LP  0  0  0  0  0  0  0  0  0  0  0  0  # atno 4875 bound_to 1912
  -20.1088   31.0807  -20.5061 LP  0  0  0  0  0  0  0  0  0  0  0  0  # atno 4876 bound_to 1912
  -19.7325   28.4255  -13.5209 LP  0  0  0  0  0  0  0  0  0  0  0  0  # atno 4881 bound_to 621 
  -18.6413   27.2903  -13.9537 LP  0  0  0  0  0  0  0  0  0  0  0  0  # atno 4882 bound_to 621 

$$$$
Compound 197|Decoys_protonated|sdf|197|dock6
  -GOLD-   6122416223D 1   1.00000     0.00000

 20 20  0  0  0  0  0  0  0  0  3 V2000
  -26.9121   29.4246  -19.9011 O   0  0  0  0  0  0  0  0  0  0  0  0
  -25.6790   29.5101  -19.8290 N   0  3  0  0  0  0  0  0  0  0  0  0
  -24.8760   29.0634  -20.6632 O   0  5  0  0  0  0  0  0  0  0  0  0
  -25.1115   30.1843  -18.6827 C   0  0  0  0  0  0  0  0  0  0  0  0
  -23.7653   30.1090  -18.3928 N   0  0  0  0  0  0  0  0  0  0  0  0
  -25.7703   30.9587  -17.7524 C   0  0  0  0  0  0  0  0  0  0  0  0
  -23.5964   30.8278  -17.2989 C   0  0  0  0  0  0  0  0  0  0  0  0
  -24.7947   31.3652  -16.8807 N   0  0  0  0  0  0  0  0  0  0  0  0
  -22.3017   31.0398  -16.6016 C   0  0  0  0  0  0  0  0  0  0  0  0
  -25.0195   32.2017  -15.7166 C   0  0  0  0  0  0  0  0  0  0  0  0
  -24.1434   33.4420  -15.7209 C   0  0  0  0  0  0  0  0  0  0  0  0
  -26.8094   31.2404  -17.6506 H   0  0  0  0  0  0  0  0  0  0  0  0
  -22.0805   32.1065  -16.5026 H   0  0  0  0  0  0  0  0  0  0  0  0
  -21.4848   30.5780  -17.1651 H   0  0  0  0  0  0  0  0  0  0  0  0
  -22.3216   30.5880  -15.6054 H   0  0  0  0  0  0  0  0  0  0  0  0
  -24.8384   31.5999  -14.8205 H   0  0  0  0  0  0  0  0  0  0  0  0
  -26.0784   32.4835  -15.7123 H   0  0  0  0  0  0  0  0  0  0  0  0
  -24.3351   34.0573  -16.6063 H   0  0  0  0  0  0  0  0  0  0  0  0
  -23.0808   33.1781  -15.7228 H   0  0  0  0  0  0  0  0  0  0  0  0
  -24.3424   34.0501  -14.8333 H   0  0  0  0  0  0  0  0  0  0  0  0
  1  2  2  0  0  0  0
  2  3  1  0  0  0  0
  2  4  1  0  0  0  0
  4  5  1  0  0  0  0
  4  6  2  0  0  0  0
  5  7  2  0  0  0  0
  6  8  1  0  0  0  0
  6 12  1  0  0  0  0
  7  9  1  0  0  0  0
  7  8  1  0  0  0  0
  8 10  1  0  0  0  0
  9 13  1  0  0  0  0
  9 14  1  0  0  0  0
  9 15  1  0  0  0  0
 10 11  1  0  0  0  0
 10 16  1  0  0  0  0
 10 17  1  0  0  0  0
 11 18  1  0  0  0  0
 11 19  1  0  0  0  0
 11 20  1  0  0  0  0
M  CHG  1   2   1
M  CHG  1   3  -1
M  END
>  <Column 1>
CCn1cc([N+](=O)[O-])nc1C ZINC000000039522

>  <Total Molweight>
155.156

>  <cLogP>
-0.1282

>  <cLogS>
-0.712

>  <H-Acceptors>
4

>  <H-Donors>
0

>  <Total Surface Area>
123.17

>  <MMFF94 Energy>
74.706

> <Gold.Version>
5.8.1

> <Gold.Id.Protein>
ID|2FQT|mol2

> <Gold.PLP.Fitness>
46.2638

> <Gold.PLP.PLP>
-32.7209

> <Gold.PLP.part.hbond>
-2.1509

> <Gold.PLP.part.metal>
-1.0000

> <Gold.PLP.part.buried>
-3.4098

> <Gold.PLP.part.nonpolar>
-26.4871

> <Gold.PLP.part.repulsive>
0.2073

> <Gold.PLP.ligand.clash>
0.0000

> <Gold.PLP.ligand.torsion>
0.0887

> <Gold.PLP.Chemscore.Hbond>
1.6448

> <Gold.PLP.Chemscore.CHOScore>
0.9554

> <Gold.PLP.Chemscore.Metal>
0.9865

> <Gold.Chemscore.Hbonds>
donor molecule, donor type, donor heavy atom, donor atom, acceptor molecule, acceptor atom, score
      P1  H   966  3428       L1     1  1.00
      P1  H  1244  3476       L1     5  0.64
      L1  C     6    12       P1   437  0.96
      P1  M  1222  1222       L1     1  0.99

> <Gold.PLP.Chemscore.Internal.Correction>
0.0005

> <Gold.Protein.RotatedTorsions>
[ 3412  950  949  948 ] final -117.63 input   60.00 | X-H torsion
[ 3476 1244 1243 1240 ] final  151.12 input   60.00 | X-H torsion
[ 2649 1223 1224 1225 ] final  -63.56 input   60.00 | X-H torsion
[ 4380 1912 1911 1909 ] final  132.23 input   60.00 | X-H torsion
[ 3084  621  620  617 ] final  157.01 input   60.00 | X-H torsion

> <Gold.Protein.ActiveResidues>
 HIS54   GLU57   HIS58   ALA61   PHE62   ILE64   ARG65   ASP75   ILE76   ILE77  
 ASP78   ILE79   SER80   PRO81   ILE118  PRO119  ALA120  ALA121  ASN122  LYS124 
 GLN125  CYS126  GLY127  CO701   VAL4    GLU5    SER6    PHE7    GLU8    LEU9   
 HIS11   ARG20   HIS21   CYS22   GLY23   VAL24   HIS25   LYS35   ARG39   MET82  
 GLY83   CYS84   TYR89  

> <Gold.Protein.RotatedAtoms>
  -21.1888   37.1848  -17.0251 H   0  0  0  0  0  0  0  0  0  0  0  0  # atno 2649 bound_to 1223
  -20.1711   38.4566  -17.3314 H   0  0  0  0  0  0  0  0  0  0  0  0  # atno 2650 bound_to 1223
  -18.0883   27.5508  -13.5726 H   0  0  0  0  0  0  0  0  0  0  0  0  # atno 3084 bound_to 621 
  -28.4552   39.3237  -29.1124 H   0  0  0  0  0  0  0  0  0  0  0  0  # atno 3412 bound_to 950 
  -28.7582   38.1340  -27.9987 H   0  0  0  0  0  0  0  0  0  0  0  0  # atno 3413 bound_to 950 
  -27.6172   37.8951  -29.1770 H   0  0  0  0  0  0  0  0  0  0  0  0  # atno 3414 bound_to 950 
  -23.2610   31.4529  -19.9254 H   0  0  0  0  0  0  0  0  0  0  0  0  # atno 3476 bound_to 1244
  -19.8151   31.9253  -19.4864 H   0  0  0  0  0  0  0  0  0  0  0  0  # atno 4380 bound_to 1912
  -23.2955   32.0999  -21.4181 LP  0  0  0  0  0  0  0  0  0  0  0  0  # atno 4866 bound_to 1244
  -24.4395   32.5016  -20.3243 LP  0  0  0  0  0  0  0  0  0  0  0  0  # atno 4867 bound_to 1244
  -21.2541   38.5408  -16.0957 LP  0  0  0  0  0  0  0  0  0  0  0  0  # atno 4874 bound_to 1223
  -21.1573   31.1262  -19.0305 LP  0  0  0  0  0  0  0  0  0  0  0  0  # atno 4875 bound_to 1912
  -20.4674   30.8108  -20.4766 LP  0  0  0  0  0  0  0  0  0  0  0  0  # atno 4876 bound_to 1912
  -18.8455   28.8350  -12.9203 LP  0  0  0  0  0  0  0  0  0  0  0  0  # atno 4881 bound_to 621 
  -19.6535   27.8283  -13.9205 LP  0  0  0  0  0  0  0  0  0  0  0  0  # atno 4882 bound_to 621 

$$$$
Compound 198|Decoys_protonated|sdf|198|dock4
  -GOLD-   6122416223D 1   1.00000     0.00000

 23 23  0  0  0  0  0  0  0  0  1 V2000
  -24.0947   33.7473  -16.0072 O   0  0  0  0  0  0  0  0  0  0  0  0
  -22.7330   33.6149  -16.2074 C   0  0  0  0  0  0  0  0  0  0  0  0
  -24.6537   32.6879  -15.2370 C   0  0  0  0  0  0  0  0  0  0  0  0
  -22.0739   32.5735  -15.6713 N   0  0  0  0  0  0  0  0  0  0  0  0
  -22.1389   34.5886  -16.9627 C   0  0  0  0  0  0  0  0  0  0  0  0
  -20.7596   32.5101  -15.9062 C   0  0  0  0  0  0  0  0  0  0  0  0
  -20.7923   34.4288  -17.1421 C   0  0  0  0  0  0  0  0  0  0  0  0
  -20.0834   33.4089  -16.6303 N   0  0  0  0  0  0  0  0  0  0  0  0
  -20.1062   31.4450  -15.3535 N   0  0  0  0  0  0  0  0  0  0  0  0
  -20.1603   35.3961  -17.9014 O   0  0  0  0  0  0  0  0  0  0  0  0
  -20.8004   30.2564  -14.9557 C   0  0  0  0  0  0  0  0  0  0  0  0
  -18.7549   35.1931  -18.0097 C   0  0  0  0  0  0  0  0  0  0  0  0
  -24.2228   32.6588  -14.2302 H   0  0  0  0  0  0  0  0  0  0  0  0
  -25.7259   32.8809  -15.1341 H   0  0  0  0  0  0  0  0  0  0  0  0
  -24.5363   31.7239  -15.7441 H   0  0  0  0  0  0  0  0  0  0  0  0
  -22.6886   35.4162  -17.3834 H   0  0  0  0  0  0  0  0  0  0  0  0
  -19.1106   31.5504  -15.2454 H   0  0  0  0  0  0  0  0  0  0  0  0
  -21.2958   29.7799  -15.8083 H   0  0  0  0  0  0  0  0  0  0  0  0
  -21.5457   30.4703  -14.1824 H   0  0  0  0  0  0  0  0  0  0  0  0
  -20.0890   29.5357  -14.5403 H   0  0  0  0  0  0  0  0  0  0  0  0
  -18.3479   36.0024  -18.6236 H   0  0  0  0  0  0  0  0  0  0  0  0
  -18.2696   35.2434  -17.0285 H   0  0  0  0  0  0  0  0  0  0  0  0
  -18.5281   34.2469  -18.5132 H   0  0  0  0  0  0  0  0  0  0  0  0
  1  2  1  0  0  0  0
  1  3  1  0  0  0  0
  2  4  2  0  0  0  0
  2  5  1  0  0  0  0
  3 13  1  0  0  0  0
  3 14  1  0  0  0  0
  3 15  1  0  0  0  0
  4  6  1  0  0  0  0
  5  7  2  0  0  0  0
  5 16  1  0  0  0  0
  6  8  2  0  0  0  0
  6  9  1  0  0  0  0
  7 10  1  0  0  0  0
  7  8  1  0  0  0  0
  9 11  1  0  0  0  0
  9 17  1  0  0  0  0
 10 12  1  0  0  0  0
 11 18  1  0  0  0  0
 11 19  1  0  0  0  0
 11 20  1  0  0  0  0
 12 21  1  0  0  0  0
 12 22  1  0  0  0  0
 12 23  1  0  0  0  0
M  END
>  <Column 1>
CNc1nc(OC)cc(OC)n1 ZINC000000039613

>  <Total Molweight>
169.183

>  <cLogP>
0.6757

>  <cLogS>
-2.029

>  <H-Acceptors>
5

>  <H-Donors>
1

>  <Total Surface Area>
139.02

>  <MMFF94 Energy>
-127.49

> <Gold.Version>
5.8.1

> <Gold.Id.Protein>
ID|2FQT|mol2

> <Gold.PLP.Fitness>
35.9430

> <Gold.PLP.PLP>
-28.1393

> <Gold.PLP.part.hbond>
-3.8287

> <Gold.PLP.part.metal>
0.0000

> <Gold.PLP.part.buried>
-3.9314

> <Gold.PLP.part.nonpolar>
-21.6829

> <Gold.PLP.part.repulsive>
0.1546

> <Gold.PLP.ligand.clash>
0.0000

> <Gold.PLP.ligand.torsion>
0.0980

> <Gold.PLP.Chemscore.Hbond>
2.6663

> <Gold.PLP.Chemscore.CHOScore>
0.0000

> <Gold.PLP.Chemscore.Metal>
0.0000

> <Gold.Chemscore.Hbonds>
donor molecule, donor type, donor heavy atom, donor atom, acceptor molecule, acceptor atom, score
      L1  H     9    17       P1   606  0.67
      P1  H  1223  2650       L1    10  1.00
      P1  H  1239  3336       L1    10  1.00

> <Gold.PLP.Chemscore.Internal.Correction>
0.0009

> <Gold.Protein.RotatedTorsions>
[ 3412  950  949  948 ] final   58.62 input   60.00 | X-H torsion
[ 3476 1244 1243 1240 ] final -131.26 input   60.00 | X-H torsion
[ 2649 1223 1224 1225 ] final -149.42 input   60.00 | X-H torsion
[ 4380 1912 1911 1909 ] final   14.21 input   60.00 | X-H torsion
[ 3084  621  620  617 ] final  -49.33 input   60.00 | X-H torsion

> <Gold.Protein.ActiveResidues>
 HIS54   GLU57   HIS58   ALA61   PHE62   ILE64   ARG65   ASP75   ILE76   ILE77  
 ASP78   ILE79   SER80   PRO81   ILE118  PRO119  ALA120  ALA121  ASN122  LYS124 
 GLN125  CYS126  GLY127  CO701   VAL4    GLU5    SER6    PHE7    GLU8    LEU9   
 HIS11   ARG20   HIS21   CYS22   GLY23   VAL24   HIS25   LYS35   ARG39   MET82  
 GLY83   CYS84   TYR89  

> <Gold.Protein.RotatedAtoms>
  -21.5199   38.0505  -16.1086 H   0  0  0  0  0  0  0  0  0  0  0  0  # atno 2649 bound_to 1223
  -20.7826   37.3070  -17.3934 H   0  0  0  0  0  0  0  0  0  0  0  0  # atno 2650 bound_to 1223
  -19.7591   28.2778  -13.6328 H   0  0  0  0  0  0  0  0  0  0  0  0  # atno 3084 bound_to 621 
  -28.1420   37.5892  -28.3692 H   0  0  0  0  0  0  0  0  0  0  0  0  # atno 3412 bound_to 950 
  -27.7649   38.7131  -29.5275 H   0  0  0  0  0  0  0  0  0  0  0  0  # atno 3413 bound_to 950 
  -28.9236   39.0505  -28.3914 H   0  0  0  0  0  0  0  0  0  0  0  0  # atno 3414 bound_to 950 
  -24.2179   32.1218  -19.8068 H   0  0  0  0  0  0  0  0  0  0  0  0  # atno 3476 bound_to 1244
  -21.1378   31.1480  -19.0147 H   0  0  0  0  0  0  0  0  0  0  0  0  # atno 4380 bound_to 1912
  -22.9202   31.4395  -20.5127 LP  0  0  0  0  0  0  0  0  0  0  0  0  # atno 4866 bound_to 1244
  -23.8511   32.4884  -21.3492 LP  0  0  0  0  0  0  0  0  0  0  0  0  # atno 4867 bound_to 1244
  -20.3254   38.8204  -16.9376 LP  0  0  0  0  0  0  0  0  0  0  0  0  # atno 4874 bound_to 1223
  -20.4943   30.7950  -20.4670 LP  0  0  0  0  0  0  0  0  0  0  0  0  # atno 4875 bound_to 1912
  -19.7984   31.9248  -19.5152 LP  0  0  0  0  0  0  0  0  0  0  0  0  # atno 4876 bound_to 1912
  -18.4711   27.3139  -13.8778 LP  0  0  0  0  0  0  0  0  0  0  0  0  # atno 4881 bound_to 621 
  -18.3453   28.6173  -12.9023 LP  0  0  0  0  0  0  0  0  0  0  0  0  # atno 4882 bound_to 621 

$$$$
Compound 199|Decoys_protonated|sdf|199|dock4
  -GOLD-   6122416223D 1   1.00000     0.00000

 22 24  0  0  0  0  0  0  0  0  1 V2000
  -19.3531   32.7388  -16.7512 N   0  0  0  0  0  0  0  0  0  0  0  0
  -20.6121   32.7309  -17.1648 N   0  0  0  0  0  0  0  0  0  0  0  0
  -19.2539   32.2726  -15.4679 N   0  0  0  0  0  0  0  0  0  0  0  0
  -21.3426   32.2510  -16.1317 N   0  0  0  0  0  0  0  0  0  0  0  0
  -20.4798   31.9772  -15.1004 C   0  0  0  0  0  0  0  0  0  0  0  0
  -22.7491   32.0958  -16.2023 C   0  0  0  0  0  0  0  0  0  0  0  0
  -23.3417   31.3112  -17.2033 C   0  0  0  0  0  0  0  0  0  0  0  0
  -23.5613   32.7373  -15.2560 C   0  0  0  0  0  0  0  0  0  0  0  0
  -24.7421   31.1709  -17.2544 C   0  0  0  0  0  0  0  0  0  0  0  0
  -24.9488   32.5963  -15.3092 C   0  0  0  0  0  0  0  0  0  0  0  0
  -25.3239   30.3749  -18.2717 N   0  0  0  0  0  0  0  0  0  0  0  0
  -25.5427   31.8166  -16.3034 C   0  0  0  0  0  0  0  0  0  0  0  0
  -26.6204   30.5024  -18.6378 N   0  0  0  0  0  0  0  0  0  0  0  0
  -24.7645   29.3890  -19.0442 C   0  0  0  0  0  0  0  0  0  0  0  0
  -26.8174   29.6138  -19.6011 N   0  0  0  0  0  0  0  0  0  0  0  0
  -25.6716   28.9127  -19.8657 N   0  0  0  0  0  0  0  0  0  0  0  0
  -20.7735   31.5814  -14.1415 H   0  0  0  0  0  0  0  0  0  0  0  0
  -22.7314   30.8045  -17.9477 H   0  0  0  0  0  0  0  0  0  0  0  0
  -23.1322   33.3535  -14.4663 H   0  0  0  0  0  0  0  0  0  0  0  0
  -25.5687   33.0992  -14.5689 H   0  0  0  0  0  0  0  0  0  0  0  0
  -26.6265   31.7387  -16.3014 H   0  0  0  0  0  0  0  0  0  0  0  0
  -23.7388   29.0644  -18.9782 H   0  0  0  0  0  0  0  0  0  0  0  0
  1  2  2  0  0  0  0
  1  3  1  0  0  0  0
  2  4  1  0  0  0  0
  3  5  2  0  0  0  0
  4  6  1  0  0  0  0
  4  5  1  0  0  0  0
  5 17  1  0  0  0  0
  6  7  2  0  0  0  0
  6  8  1  0  0  0  0
  7  9  1  0  0  0  0
  7 18  1  0  0  0  0
  8 10  2  0  0  0  0
  8 19  1  0  0  0  0
  9 11  1  0  0  0  0
  9 12  2  0  0  0  0
 10 12  1  0  0  0  0
 10 20  1  0  0  0  0
 11 13  1  0  0  0  0
 11 14  1  0  0  0  0
 12 21  1  0  0  0  0
 13 15  2  0  0  0  0
 14 16  2  0  0  0  0
 14 22  1  0  0  0  0
 15 16  1  0  0  0  0
M  END
>  <Column 1>
c1cc(-n2cnnn2)cc(-n2cnnn2)c1 ZINC000000039654

>  <Total Molweight>
214.192

>  <cLogP>
-0.5432

>  <cLogS>
-2.214

>  <H-Acceptors>
8

>  <H-Donors>
0

>  <Total Surface Area>
163.74

>  <MMFF94 Energy>
53.15

> <Gold.Version>
5.8.1

> <Gold.Id.Protein>
ID|2FQT|mol2

> <Gold.PLP.Fitness>
58.1201

> <Gold.PLP.PLP>
-39.6006

> <Gold.PLP.part.hbond>
-2.0790

> <Gold.PLP.part.metal>
-2.0000

> <Gold.PLP.part.buried>
-7.2503

> <Gold.PLP.part.nonpolar>
-32.0359

> <Gold.PLP.part.repulsive>
3.1676

> <Gold.PLP.ligand.clash>
0.0000

> <Gold.PLP.ligand.torsion>
1.2316

> <Gold.PLP.Chemscore.Hbond>
2.0000

> <Gold.PLP.Chemscore.CHOScore>
0.9942

> <Gold.PLP.Chemscore.Metal>
2.0000

> <Gold.Chemscore.Hbonds>
donor molecule, donor type, donor heavy atom, donor atom, acceptor molecule, acceptor atom, score
      P1  H   966  3428       L1    15  1.00
      P1  H  1912  4380       L1     2  1.00
      L1  C     5    17       P1   611  0.99
      P1  M  1222  1222       L1    13  1.00
      P1  M  1222  1222       L1    15  1.00

> <Gold.PLP.Chemscore.Internal.Correction>
0.0000

> <Gold.Protein.RotatedTorsions>
[ 3412  950  949  948 ] final   63.20 input   60.00 | X-H torsion
[ 3476 1244 1243 1240 ] final -153.00 input   60.00 | X-H torsion
[ 2649 1223 1224 1225 ] final  -75.69 input   60.00 | X-H torsion
[ 4380 1912 1911 1909 ] final   60.95 input   60.00 | X-H torsion
[ 3084  621  620  617 ] final  140.73 input   60.00 | X-H torsion

> <Gold.Protein.ActiveResidues>
 HIS54   GLU57   HIS58   ALA61   PHE62   ILE64   ARG65   ASP75   ILE76   ILE77  
 ASP78   ILE79   SER80   PRO81   ILE118  PRO119  ALA120  ALA121  ASN122  LYS124 
 GLN125  CYS126  GLY127  CO701   VAL4    GLU5    SER6    PHE7    GLU8    LEU9   
 HIS11   ARG20   HIS21   CYS22   GLY23   VAL24   HIS25   LYS35   ARG39   MET82  
 GLY83   CYS84   TYR89  

> <Gold.Protein.RotatedAtoms>
  -21.3134   37.2152  -16.8688 H   0  0  0  0  0  0  0  0  0  0  0  0  # atno 2649 bound_to 1223
  -20.1786   38.2827  -17.4343 H   0  0  0  0  0  0  0  0  0  0  0  0  # atno 2650 bound_to 1223
  -17.9894   27.7334  -13.4077 H   0  0  0  0  0  0  0  0  0  0  0  0  # atno 3084 bound_to 621 
  -28.0890   37.5763  -28.4228 H   0  0  0  0  0  0  0  0  0  0  0  0  # atno 3412 bound_to 950 
  -27.8026   38.7797  -29.5261 H   0  0  0  0  0  0  0  0  0  0  0  0  # atno 3413 bound_to 950 
  -28.9390   38.9967  -28.3392 H   0  0  0  0  0  0  0  0  0  0  0  0  # atno 3414 bound_to 950 
  -23.9808   31.8917  -19.6823 H   0  0  0  0  0  0  0  0  0  0  0  0  # atno 3476 bound_to 1244
  -20.6395   31.6636  -18.8214 H   0  0  0  0  0  0  0  0  0  0  0  0  # atno 4380 bound_to 1912
  -22.8936   31.5591  -20.8465 LP  0  0  0  0  0  0  0  0  0  0  0  0  # atno 4866 bound_to 1244
  -24.1165   32.6005  -21.1408 LP  0  0  0  0  0  0  0  0  0  0  0  0  # atno 4867 bound_to 1244
  -21.1240   38.6821  -16.1484 LP  0  0  0  0  0  0  0  0  0  0  0  0  # atno 4874 bound_to 1223
  -21.0551   30.6243  -20.0026 LP  0  0  0  0  0  0  0  0  0  0  0  0  # atno 4875 bound_to 1912
  -19.7394   31.5762  -20.1742 LP  0  0  0  0  0  0  0  0  0  0  0  0  # atno 4876 bound_to 1912
  -19.1005   28.8496  -12.9983 LP  0  0  0  0  0  0  0  0  0  0  0  0  # atno 4881 bound_to 621 
  -19.4981   27.6297  -14.0085 LP  0  0  0  0  0  0  0  0  0  0  0  0  # atno 4882 bound_to 621 

$$$$
Compound 200|Decoys_protonated|sdf|200|dock1
  -GOLD-   6122416223D 1   1.00000     0.00000

 23 24  0  0  0  0  0  0  0  0  1 V2000
  -18.3762   33.3005  -19.9182 O   0  0  0  0  0  0  0  0  0  0  0  0
  -17.7106   34.2484  -19.1968 C   0  0  0  0  0  0  0  0  0  0  0  0
  -18.2945   34.8466  -18.0725 C   0  0  0  0  0  0  0  0  0  0  0  0
  -16.4245   34.6168  -19.6008 C   0  0  0  0  0  0  0  0  0  0  0  0
  -17.5711   35.8182  -17.3603 C   0  0  0  0  0  0  0  0  0  0  0  0
  -19.6520   34.5300  -17.5568 C   0  0  0  0  0  0  0  0  0  0  0  0
  -15.7246   35.5807  -18.8827 C   0  0  0  0  0  0  0  0  0  0  0  0
  -16.2852   36.1865  -17.7646 C   0  0  0  0  0  0  0  0  0  0  0  0
  -20.6775   35.2985  -17.7167 N   0  0  0  0  0  0  0  0  0  0  0  0
  -14.4735   35.9074  -19.3148 O   0  0  0  0  0  0  0  0  0  0  0  0
  -21.8417   34.7921  -17.1464 C   0  0  0  0  0  0  0  0  0  0  0  0
  -21.8524   33.5145  -16.7576 N   0  0  0  0  0  0  0  0  0  0  0  0
  -23.0185   35.4637  -16.9266 N   0  0  0  0  0  0  0  0  0  0  0  0
  -23.0926   33.3869  -16.2742 N   0  0  0  0  0  0  0  0  0  0  0  0
  -23.7833   34.5506  -16.3771 C   0  0  0  0  0  0  0  0  0  0  0  0
  -18.5817   33.6359  -20.8041 H   0  0  0  0  0  0  0  0  0  0  0  0
  -15.9559   34.1644  -20.4692 H   0  0  0  0  0  0  0  0  0  0  0  0
  -18.0023   36.2974  -16.4840 H   0  0  0  0  0  0  0  0  0  0  0  0
  -19.7181   33.5673  -17.0152 H   0  0  0  0  0  0  0  0  0  0  0  0
  -15.7446   36.9394  -17.1995 H   0  0  0  0  0  0  0  0  0  0  0  0
  -13.8997   36.0451  -18.5430 H   0  0  0  0  0  0  0  0  0  0  0  0
  -23.3883   32.4933  -15.8990 H   0  0  0  0  0  0  0  0  0  0  0  0
  -24.8047   34.6699  -16.0467 H   0  0  0  0  0  0  0  0  0  0  0  0
  1  2  1  0  0  0  0
  1 16  1  0  0  0  0
  2  3  2  0  0  0  0
  2  4  1  0  0  0  0
  3  5  1  0  0  0  0
  3  6  1  0  0  0  0
  4  7  2  0  0  0  0
  4 17  1  0  0  0  0
  5  8  2  0  0  0  0
  5 18  1  0  0  0  0
  6  9  2  0  0  0  0
  6 19  1  0  0  0  0
  7 10  1  0  0  0  0
  7  8  1  0  0  0  0
  8 20  1  0  0  0  0
  9 11  1  0  0  0  0
 10 21  1  0  0  0  0
 11 12  2  0  0  0  0
 11 13  1  0  0  0  0
 12 14  1  0  0  0  0
 13 15  2  0  0  0  0
 14 15  1  0  0  0  0
 14 22  1  0  0  0  0
 15 23  1  0  0  0  0
M  END
>  <Column 1>
Oc1ccc(C=Nc2nc[nH]n2)c(O)c1 ZINC000000039805

>  <Total Molweight>
204.189

>  <cLogP>
0.4814

>  <cLogS>
-1.787

>  <H-Acceptors>
6

>  <H-Donors>
3

>  <Total Surface Area>
157.57

>  <MMFF94 Energy>
-10.793

> <Gold.Version>
5.8.1

> <Gold.Id.Protein>
ID|2FQT|mol2

> <Gold.PLP.Fitness>
52.1258

> <Gold.PLP.PLP>
-38.6092

> <Gold.PLP.part.hbond>
-5.8763

> <Gold.PLP.part.metal>
0.0000

> <Gold.PLP.part.buried>
-6.9219

> <Gold.PLP.part.nonpolar>
-25.8615

> <Gold.PLP.part.repulsive>
0.0623

> <Gold.PLP.ligand.clash>
0.0000

> <Gold.PLP.ligand.torsion>
0.7421

> <Gold.PLP.Chemscore.Hbond>
5.0000

> <Gold.PLP.Chemscore.CHOScore>
0.0000

> <Gold.PLP.Chemscore.Metal>
0.0000

> <Gold.Chemscore.Hbonds>
donor molecule, donor type, donor heavy atom, donor atom, acceptor molecule, acceptor atom, score
      L1  H     1    16       P1  1237  1.00
      L1  H    10    21       P1  1396  1.00
      P1  H  1223  2649       L1     9  1.00
      P1  H  1912  4380       L1     1  1.00
      P1  H  1239  3336       L1     9  1.00

> <Gold.PLP.Chemscore.Internal.Correction>
0.0009

> <Gold.Protein.RotatedTorsions>
[ 3412  950  949  948 ] final   39.52 input   60.00 | X-H torsion
[ 3476 1244 1243 1240 ] final -102.14 input   60.00 | X-H torsion
[ 2649 1223 1224 1225 ] final  -39.89 input   60.00 | X-H torsion
[ 4380 1912 1911 1909 ] final  144.75 input   60.00 | X-H torsion
[ 3084  621  620  617 ] final  107.02 input   60.00 | X-H torsion

> <Gold.Protein.ActiveResidues>
 HIS54   GLU57   HIS58   ALA61   PHE62   ILE64   ARG65   ASP75   ILE76   ILE77  
 ASP78   ILE79   SER80   PRO81   ILE118  PRO119  ALA120  ALA121  ASN122  LYS124 
 GLN125  CYS126  GLY127  CO701   VAL4    GLU5    SER6    PHE7    GLU8    LEU9   
 HIS11   ARG20   HIS21   CYS22   GLY23   VAL24   HIS25   LYS35   ARG39   MET82  
 GLY83   CYS84   TYR89  

> <Gold.Protein.RotatedAtoms>
  -20.9107   37.2378  -17.2968 H   0  0  0  0  0  0  0  0  0  0  0  0  # atno 2649 bound_to 1223
  -20.2457   38.7389  -17.0693 H   0  0  0  0  0  0  0  0  0  0  0  0  # atno 2650 bound_to 1223
  -18.0094   28.1780  -13.0968 H   0  0  0  0  0  0  0  0  0  0  0  0  # atno 3084 bound_to 621 
  -28.3683   37.7003  -28.1763 H   0  0  0  0  0  0  0  0  0  0  0  0  # atno 3412 bound_to 950 
  -27.6454   38.4227  -29.4812 H   0  0  0  0  0  0  0  0  0  0  0  0  # atno 3413 bound_to 950 
  -28.8168   39.2298  -28.6306 H   0  0  0  0  0  0  0  0  0  0  0  0  # atno 3414 bound_to 950 
  -24.4075   32.4013  -20.1345 H   0  0  0  0  0  0  0  0  0  0  0  0  # atno 3476 bound_to 1244
  -19.7451   31.8709  -19.6704 H   0  0  0  0  0  0  0  0  0  0  0  0  # atno 4380 bound_to 1912
  -23.1187   31.4091  -20.0835 LP  0  0  0  0  0  0  0  0  0  0  0  0  # atno 4866 bound_to 1244
  -23.4616   32.2374  -21.4484 LP  0  0  0  0  0  0  0  0  0  0  0  0  # atno 4867 bound_to 1244
  -21.4546   38.2104  -16.0863 LP  0  0  0  0  0  0  0  0  0  0  0  0  # atno 4874 bound_to 1223
  -21.0591   31.2703  -18.9216 LP  0  0  0  0  0  0  0  0  0  0  0  0  # atno 4875 bound_to 1912
  -20.6361   30.7214  -20.4003 LP  0  0  0  0  0  0  0  0  0  0  0  0  # atno 4876 bound_to 1912
  -19.5457   28.6857  -13.2700 LP  0  0  0  0  0  0  0  0  0  0  0  0  # atno 4881 bound_to 621 
  -19.0327   27.3459  -14.0499 LP  0  0  0  0  0  0  0  0  0  0  0  0  # atno 4882 bound_to 621 

$$$$
