Compound 1|DecoysActives|sdf|1|dock5
  -GOLD-   6112412103D 1   1.00000     0.00000

 34 34  0  0  0  0  0  0  0  0  3 V2000
  -24.5502   33.0482  -16.0994 S   0  0  0  0  0  0  0  0  0  0  0  0
  -25.6452   34.3231  -16.8129 C   0  0  0  0  0  0  0  0  0  0  0  0
  -24.9737   31.6463  -17.1901 C   0  0  0  0  0  0  0  0  0  0  0  0
  -26.1321   35.3536  -15.7874 C   0  0  1  0  0  0  0  0  0  0  0  0
  -25.3543   32.0829  -18.6111 C   0  0  0  0  0  0  0  0  0  0  0  0
  -25.0662   36.3187  -15.6047 O   0  0  0  0  0  0  0  0  0  0  0  0
  -27.3691   36.1434  -16.2337 C   0  0  1  0  0  0  0  0  0  0  0  0
  -25.5132   30.9599  -19.6467 C   0  0  2  0  0  0  0  0  0  0  0  0
  -25.5367   37.6043  -16.0230 C   0  0  2  0  0  0  0  0  0  0  0  0
  -28.1125   36.6325  -15.1010 O   0  0  0  0  0  0  0  0  0  0  0  0
  -26.7453   37.3381  -16.9240 C   0  0  2  0  0  0  0  0  0  0  0  0
  -25.8930   31.5191  -20.9630 N   0  3  0  0  0  0  0  0  0  0  0  0
  -26.4871   29.8533  -19.2239 C   0  0  0  0  0  0  0  0  0  0  0  0
  -24.5207   38.3059  -16.7199 O   0  0  0  0  0  0  0  0  0  0  0  0
  -27.6278   38.4524  -17.0069 O   0  0  0  0  0  0  0  0  0  0  0  0
  -27.4018   29.3951  -19.8930 O   0  0  0  0  0  0  0  0  0  0  0  0
  -26.1842   29.3112  -18.0266 O   0  5  0  0  0  0  0  0  0  0  0  0
  -26.4991   33.8375  -17.2371 H   0  0  0  0  0  0  0  0  0  0  0  0
  -25.0748   34.8537  -17.5464 H   0  0  0  0  0  0  0  0  0  0  0  0
  -25.8014   31.1200  -16.7624 H   0  0  0  0  0  0  0  0  0  0  0  0
  -24.1035   31.0287  -17.2684 H   0  0  0  0  0  0  0  0  0  0  0  0
  -26.3941   34.8135  -14.9017 H   0  0  0  0  0  0  0  0  0  0  0  0
  -24.5925   32.7464  -18.9637 H   0  0  0  0  0  0  0  0  0  0  0  0
  -26.3224   32.5300  -18.5234 H   0  0  0  0  0  0  0  0  0  0  0  0
  -28.0397   35.5575  -16.8269 H   0  0  0  0  0  0  0  0  0  0  0  0
  -24.5553   30.4889  -19.7200 H   0  0  0  0  0  0  0  0  0  0  0  0
  -25.8079   38.2161  -15.1881 H   0  0  0  0  0  0  0  0  0  0  0  0
  -27.5925   36.5027  -14.2926 H   0  0  0  0  0  0  0  0  0  0  0  0
  -26.4934   37.1638  -17.9492 H   0  0  0  0  0  0  0  0  0  0  0  0
  -25.0878   31.9879  -21.3783 H   0  0  0  0  0  0  0  0  0  0  0  0
  -26.6515   32.1900  -20.8413 H   0  0  0  0  0  0  0  0  0  0  0  0
  -26.2012   30.7650  -21.5767 H   0  0  0  0  0  0  0  0  0  0  0  0
  -23.6751   38.1937  -16.2580 H   0  0  0  0  0  0  0  0  0  0  0  0
  -28.0647   38.4551  -17.8730 H   0  0  0  0  0  0  0  0  0  0  0  0
  1  2  1  0  0  0  0
  1  3  1  0  0  0  0
  2  4  1  0  0  0  0
  2 18  1  0  0  0  0
  2 19  1  0  0  0  0
  3  5  1  0  0  0  0
  3 20  1  0  0  0  0
  3 21  1  0  0  0  0
  4  6  1  0  0  0  0
  4  7  1  0  0  0  0
  4 22  1  0  0  0  0
  5  8  1  0  0  0  0
  5 23  1  0  0  0  0
  5 24  1  0  0  0  0
  6  9  1  0  0  0  0
  7 10  1  0  0  0  0
  7 11  1  0  0  0  0
  7 25  1  0  0  0  0
  8 12  1  0  0  0  0
  8 13  1  0  0  0  0
  8 26  1  0  0  0  0
  9 14  1  0  0  0  0
  9 11  1  0  0  0  0
  9 27  1  0  0  0  0
 10 28  1  0  0  0  0
 11 15  1  0  0  0  0
 11 29  1  0  0  0  0
 12 30  1  0  0  0  0
 12 31  1  0  0  0  0
 12 32  1  0  0  0  0
 13 16  2  0  0  0  0
 13 17  1  0  0  0  0
 14 33  1  0  0  0  0
 15 34  1  0  0  0  0
M  CHG  1  12   1
M  CHG  1  17  -1
M  END
>  <Column 1>
N[C@@H](CCSC[C@H]1OC(O)[C@H](O)[C@@H]1O)C(=O)O

>  <Total Molweight>
267.301

>  <cLogP>
-4.0517

>  <cLogS>
-0.684

>  <H-Acceptors>
7

>  <H-Donors>
5

>  <Total Surface Area>
182.94

>  <MMFF94 Energy>
92.352

> <Gold.Version>
5.8.1

> <Gold.Id.Protein>
ID|2FQT|mol2

> <Gold.PLP.Fitness>
66.2897

> <Gold.PLP.PLP>
-36.2893

> <Gold.PLP.part.hbond>
-3.5237

> <Gold.PLP.part.metal>
-2.0000

> <Gold.PLP.part.buried>
2.6621

> <Gold.PLP.part.nonpolar>
-34.2786

> <Gold.PLP.part.repulsive>
0.3981

> <Gold.PLP.ligand.clash>
0.0000

> <Gold.PLP.ligand.torsion>
0.6585

> <Gold.PLP.Chemscore.Hbond>
2.4911

> <Gold.PLP.Chemscore.CHOScore>
0.0000

> <Gold.PLP.Chemscore.Metal>
3.9387

> <Gold.Chemscore.Hbonds>
donor molecule, donor type, donor heavy atom, donor atom, acceptor molecule, acceptor atom, score
      L1  H    10    28       P1   431  1.00
      L1  H    12    31       P1   954  0.87
      P1  H   966  2177       L1    16  0.62
      P1  M  1222  1222       L1    16  2.00
      P1  M  1222  1222       L1    17  1.94

> <Gold.PLP.Chemscore.Internal.Correction>
0.2118

> <Gold.Protein.RotatedTorsions>
[ 1849  621  620  617 ] final   27.39 input   60.00 | X-H torsion

> <Gold.Protein.ActiveResidues>
 HIS54   GLU57   HIS58   ALA61   PHE62   ILE76   ILE77   ASP78   ILE79   SER80  
 PRO81   GLN125  CYS126  GLY127  GLN128  HIS132  CO701  

> <Gold.Protein.RotatedAtoms>
  -18.9970   28.8445  -12.9631 H   0  0  0  0  0  0  0  0  0  0  0  0  # atno 1849 bound_to 621 
  -19.5687   27.7076  -13.9774 LP  0  0  0  0  0  0  0  0  0  0  0  0  # atno 2431 bound_to 621 
  -18.0152   27.6529  -13.4772 LP  0  0  0  0  0  0  0  0  0  0  0  0  # atno 2432 bound_to 621 

$$$$
Compound 2|DecoysActives|sdf|2|dock4
  -GOLD-   6112412103D 1   1.00000     0.00000

 31 30  0  0  0  0  0  0  0  0  4 V2000
  -27.0467   38.4818  -17.4826 S   0  0  0  0  0  0  0  0  0  0  0  0
  -27.2019   37.4453  -15.9973 C   0  0  0  0  0  0  0  0  0  0  0  0
  -26.8683   35.9879  -16.2729 C   0  0  0  0  0  0  0  0  0  0  0  0
  -27.3913   35.3736  -17.2002 O   0  0  0  0  0  0  0  0  0  0  0  0
  -26.0108   35.4024  -15.3675 N   0  3  0  0  0  0  0  0  0  0  0  0
  -24.8696   34.5994  -15.7542 C   0  0  0  0  0  0  0  0  0  0  0  0
  -25.1739   33.1004  -15.7266 C   0  0  0  0  0  0  0  0  0  0  0  0
  -25.4039   32.4560  -17.0986 C   0  0  0  0  0  0  0  0  0  0  0  0
  -25.1921   30.9356  -17.0946 C   0  0  0  0  0  0  0  0  0  0  0  0
  -25.0790   30.3589  -18.5131 C   0  0  2  0  0  0  0  0  0  0  0  0
  -24.1276   31.1790  -19.2969 N   0  3  0  0  0  0  0  0  0  0  0  0
  -26.3989   30.2766  -19.2927 C   0  0  0  0  0  0  0  0  0  0  0  0
  -27.1018   31.2373  -19.5797 O   0  0  0  0  0  0  0  0  0  0  0  0
  -26.8069   29.0355  -19.6152 O   0  5  0  0  0  0  0  0  0  0  0  0
  -25.7312   38.6405  -17.7892 H   0  0  0  0  0  0  0  0  0  0  0  0
  -28.2083   37.5060  -15.6389 H   0  0  0  0  0  0  0  0  0  0  0  0
  -26.5055   37.8086  -15.2706 H   0  0  0  0  0  0  0  0  0  0  0  0
  -26.1829   35.5368  -14.4075 H   0  0  0  0  0  0  0  0  0  0  0  0
  -26.9106   35.0686  -15.5874 H   0  0  0  0  0  0  0  0  0  0  0  0
  -24.0644   34.7989  -15.0784 H   0  0  0  0  0  0  0  0  0  0  0  0
  -24.6124   34.8613  -16.7592 H   0  0  0  0  0  0  0  0  0  0  0  0
  -26.0559   32.9524  -15.1393 H   0  0  0  0  0  0  0  0  0  0  0  0
  -24.3046   32.6283  -15.3186 H   0  0  0  0  0  0  0  0  0  0  0  0
  -24.7221   32.8927  -17.7982 H   0  0  0  0  0  0  0  0  0  0  0  0
  -26.4240   32.6346  -17.3672 H   0  0  0  0  0  0  0  0  0  0  0  0
  -26.0215   30.4740  -16.6007 H   0  0  0  0  0  0  0  0  0  0  0  0
  -24.2726   30.7348  -16.5855 H   0  0  0  0  0  0  0  0  0  0  0  0
  -24.7442   29.3510  -18.3826 H   0  0  0  0  0  0  0  0  0  0  0  0
  -24.5750   31.4866  -20.1603 H   0  0  0  0  0  0  0  0  0  0  0  0
  -23.3030   30.6219  -19.5211 H   0  0  0  0  0  0  0  0  0  0  0  0
  -23.8492   31.9933  -18.7494 H   0  0  0  0  0  0  0  0  0  0  0  0
  1  2  1  0  0  0  0
  1 15  1  0  0  0  0
  2  3  1  0  0  0  0
  2 16  1  0  0  0  0
  2 17  1  0  0  0  0
  3  4  2  0  0  0  0
  3  5  1  0  0  0  0
  5  6  1  0  0  0  0
  5 18  1  0  0  0  0
  5 19  1  0  0  0  0
  6  7  1  0  0  0  0
  6 20  1  0  0  0  0
  6 21  1  0  0  0  0
  7  8  1  0  0  0  0
  7 22  1  0  0  0  0
  7 23  1  0  0  0  0
  8  9  1  0  0  0  0
  8 24  1  0  0  0  0
  8 25  1  0  0  0  0
  9 10  1  0  0  0  0
  9 26  1  0  0  0  0
  9 27  1  0  0  0  0
 10 11  1  0  0  0  0
 10 12  1  0  0  0  0
 10 28  1  0  0  0  0
 11 29  1  0  0  0  0
 11 30  1  0  0  0  0
 11 31  1  0  0  0  0
 12 13  2  0  0  0  0
 12 14  1  0  0  0  0
M  CHG  1   5   1
M  CHG  1  11   1
M  CHG  1  14  -1
M  END
>  <Column 1>
N[C@@H](CCCCNC(=O)CS)C(=O)O

>  <Total Molweight>
220.292

>  <cLogP>
-2.6114

>  <cLogS>
-1.64

>  <H-Acceptors>
5

>  <H-Donors>
3

>  <Total Surface Area>
172.49

>  <MMFF94 Energy>
27.112

> <Gold.Version>
5.8.1

> <Gold.Id.Protein>
ID|2FQT|mol2

> <Gold.PLP.Fitness>
63.8195

> <Gold.PLP.PLP>
-35.8930

> <Gold.PLP.part.hbond>
-3.0000

> <Gold.PLP.part.metal>
-2.0000

> <Gold.PLP.part.buried>
1.2566

> <Gold.PLP.part.nonpolar>
-32.7740

> <Gold.PLP.part.repulsive>
0.3262

> <Gold.PLP.ligand.clash>
0.0000

> <Gold.PLP.ligand.torsion>
1.0374

> <Gold.PLP.Chemscore.Hbond>
1.9913

> <Gold.PLP.Chemscore.CHOScore>
0.0000

> <Gold.PLP.Chemscore.Metal>
3.9632

> <Gold.Chemscore.Hbonds>
donor molecule, donor type, donor heavy atom, donor atom, acceptor molecule, acceptor atom, score
      L1  H     5    18       P1   431  0.99
      P1  H   966  2177       L1    14  1.00
      P1  M  1222  1222       L1    13  1.99
      P1  M  1222  1222       L1    14  1.97

> <Gold.PLP.Chemscore.Internal.Correction>
0.2481

> <Gold.Protein.RotatedTorsions>
[ 1849  621  620  617 ] final  -92.50 input   60.00 | X-H torsion

> <Gold.Protein.ActiveResidues>
 HIS54   GLU57   HIS58   ALA61   PHE62   ILE76   ILE77   ASP78   ILE79   SER80  
 PRO81   GLN125  CYS126  GLY127  GLN128  HIS132  CO701  

> <Gold.Protein.RotatedAtoms>
  -19.5655   27.7101  -13.9715 H   0  0  0  0  0  0  0  0  0  0  0  0  # atno 1849 bound_to 621 
  -18.0158   27.6517  -13.4782 LP  0  0  0  0  0  0  0  0  0  0  0  0  # atno 2431 bound_to 621 
  -18.9957   28.8512  -12.9608 LP  0  0  0  0  0  0  0  0  0  0  0  0  # atno 2432 bound_to 621 

$$$$
Compound 3|DecoysActives|sdf|3|dock19
  -GOLD-   6112412113D 1   1.00000     0.00000

 33 32  0  0  0  0  0  0  0  0  3 V2000
  -24.2483   32.6902  -14.8464 S   0  0  0  0  0  0  0  0  0  0  0  0
  -22.6002   32.0940  -14.3081 C   0  0  0  0  0  0  0  0  0  0  0  0
  -24.1755   32.2263  -16.6147 C   0  0  0  0  0  0  0  0  0  0  0  0
  -21.4656   32.8355  -15.0341 C   0  0  2  0  0  0  0  0  0  0  0  0
  -25.2923   31.2512  -16.9952 C   0  0  0  0  0  0  0  0  0  0  0  0
  -21.0886   32.1221  -16.2334 O   0  0  0  0  0  0  0  0  0  0  0  0
  -20.1925   33.0805  -14.2014 C   0  0  1  0  0  0  0  0  0  0  0  0
  -25.1394   30.6720  -18.4092 C   0  0  2  0  0  0  0  0  0  0  0  0
  -19.5750   31.8139  -13.8989 O   0  0  0  0  0  0  0  0  0  0  0  0
  -19.1962   33.9570  -14.9649 C   0  0  0  0  0  0  0  0  0  0  0  0
  -25.0960   31.7658  -19.4018 N   0  3  0  0  0  0  0  0  0  0  0  0
  -26.2378   29.6640  -18.7814 C   0  0  0  0  0  0  0  0  0  0  0  0
  -19.4146   35.1122  -15.3256 O   0  0  0  0  0  0  0  0  0  0  0  0
  -17.9870   33.3440  -15.1736 N   0  0  0  0  0  0  0  0  0  0  0  0
  -26.5724   28.6876  -18.1265 O   0  0  0  0  0  0  0  0  0  0  0  0
  -26.9118   29.9859  -19.9021 O   0  5  0  0  0  0  0  0  0  0  0  0
  -16.9925   34.0694  -15.8596 O   0  0  0  0  0  0  0  0  0  0  0  0
  -22.5230   31.0480  -14.5201 H   0  0  0  0  0  0  0  0  0  0  0  0
  -22.5034   32.2791  -13.2587 H   0  0  0  0  0  0  0  0  0  0  0  0
  -23.2308   31.7646  -16.8126 H   0  0  0  0  0  0  0  0  0  0  0  0
  -24.2993   33.1159  -17.1963 H   0  0  0  0  0  0  0  0  0  0  0  0
  -21.8775   33.7992  -15.2499 H   0  0  0  0  0  0  0  0  0  0  0  0
  -26.2275   31.7680  -16.9395 H   0  0  0  0  0  0  0  0  0  0  0  0
  -25.2427   30.4307  -16.3103 H   0  0  0  0  0  0  0  0  0  0  0  0
  -20.7879   32.7545  -16.9047 H   0  0  0  0  0  0  0  0  0  0  0  0
  -20.4677   33.5866  -13.2997 H   0  0  0  0  0  0  0  0  0  0  0  0
  -24.2170   30.1298  -18.4173 H   0  0  0  0  0  0  0  0  0  0  0  0
  -18.8447   31.6543  -14.5171 H   0  0  0  0  0  0  0  0  0  0  0  0
  -24.8598   31.3844  -20.3179 H   0  0  0  0  0  0  0  0  0  0  0  0
  -24.3899   32.4480  -19.1252 H   0  0  0  0  0  0  0  0  0  0  0  0
  -26.0081   32.2200  -19.4473 H   0  0  0  0  0  0  0  0  0  0  0  0
  -17.8195   32.4277  -14.8549 H   0  0  0  0  0  0  0  0  0  0  0  0
  -16.1962   34.1266  -15.3087 H   0  0  0  0  0  0  0  0  0  0  0  0
  1  2  1  0  0  0  0
  1  3  1  0  0  0  0
  2  4  1  0  0  0  0
  2 18  1  0  0  0  0
  2 19  1  0  0  0  0
  3  5  1  0  0  0  0
  3 20  1  0  0  0  0
  3 21  1  0  0  0  0
  4  6  1  0  0  0  0
  4  7  1  0  0  0  0
  4 22  1  0  0  0  0
  5  8  1  0  0  0  0
  5 23  1  0  0  0  0
  5 24  1  0  0  0  0
  6 25  1  0  0  0  0
  7  9  1  0  0  0  0
  7 10  1  0  0  0  0
  7 26  1  0  0  0  0
  8 11  1  0  0  0  0
  8 12  1  0  0  0  0
  8 27  1  0  0  0  0
  9 28  1  0  0  0  0
 10 13  2  0  0  0  0
 10 14  1  0  0  0  0
 11 29  1  0  0  0  0
 11 30  1  0  0  0  0
 11 31  1  0  0  0  0
 12 15  2  0  0  0  0
 12 16  1  0  0  0  0
 14 17  1  0  0  0  0
 14 32  1  0  0  0  0
 17 33  1  0  0  0  0
M  CHG  1  11   1
M  CHG  1  16  -1
M  END
>  <Column 1>
N[C@@H](CCSC[C@H](O)[C@@H](O)C(=O)NO)C(=O)O

>  <Total Molweight>
268.289

>  <cLogP>
-4.816

>  <cLogS>
-0.775

>  <H-Acceptors>
8

>  <H-Donors>
6

>  <Total Surface Area>
190.65

>  <MMFF94 Energy>
101.44

> <Gold.Version>
5.8.1

> <Gold.Id.Protein>
ID|2FQT|mol2

> <Gold.PLP.Fitness>
68.2487

> <Gold.PLP.PLP>
-31.6192

> <Gold.PLP.part.hbond>
-5.9945

> <Gold.PLP.part.metal>
-2.0000

> <Gold.PLP.part.buried>
-1.3445

> <Gold.PLP.part.nonpolar>
-23.7484

> <Gold.PLP.part.repulsive>
0.2723

> <Gold.PLP.ligand.clash>
0.0000

> <Gold.PLP.ligand.torsion>
0.9043

> <Gold.PLP.Chemscore.Hbond>
4.7593

> <Gold.PLP.Chemscore.CHOScore>
0.0000

> <Gold.PLP.Chemscore.Metal>
3.9897

> <Gold.Chemscore.Hbonds>
donor molecule, donor type, donor heavy atom, donor atom, acceptor molecule, acceptor atom, score
      L1  H     9    28       P1   606  0.77
      L1  H    14    32       P1   606  1.00
      L1  H    17    33       P1   595  1.00
      P1  H   608  1834       L1     9  0.99
      P1  H   966  2177       L1    16  1.00
      P1  M  1222  1222       L1    15  2.00
      P1  M  1222  1222       L1    16  1.99

> <Gold.PLP.Chemscore.Internal.Correction>
0.2221

> <Gold.Protein.RotatedTorsions>
[ 1849  621  620  617 ] final  -77.52 input   60.00 | X-H torsion

> <Gold.Protein.ActiveResidues>
 HIS54   GLU57   HIS58   ALA61   PHE62   ILE76   ILE77   ASP78   ILE79   SER80  
 PRO81   GLN125  CYS126  GLY127  GLN128  HIS132  CO701  

> <Gold.Protein.RotatedAtoms>
  -19.6867   27.9000  -13.8778 H   0  0  0  0  0  0  0  0  0  0  0  0  # atno 1849 bound_to 621 
  -18.1301   27.4955  -13.6296 LP  0  0  0  0  0  0  0  0  0  0  0  0  # atno 2431 bound_to 621 
  -18.7592   28.8161  -12.9038 LP  0  0  0  0  0  0  0  0  0  0  0  0  # atno 2432 bound_to 621 

$$$$
Compound 4|DecoysActives|sdf|4|dock2
  -GOLD-   6112412113D 1   1.00000     0.00000

 39 39  0  0  0  0  0  0  0  0  4 V2000
  -26.8288   28.9006  -19.5510 O   0  0  0  0  0  0  0  0  0  0  0  0
  -26.5064   29.9493  -19.0062 C   0  0  0  0  0  0  0  0  0  0  0  0
  -26.9820   31.1155  -19.4777 O   0  5  0  0  0  0  0  0  0  0  0  0
  -25.5521   30.0537  -17.8041 C   0  0  1  0  0  0  0  0  0  0  0  0
  -25.0724   28.6905  -17.4830 N   0  3  0  0  0  0  0  0  0  0  0  0
  -24.3363   30.9697  -18.0115 C   0  0  0  0  0  0  0  0  0  0  0  0
  -24.5673   32.3789  -17.4432 C   0  0  0  0  0  0  0  0  0  0  0  0
  -24.3823   32.4627  -15.9165 C   0  0  1  0  0  0  0  0  0  0  0  0
  -22.9418   32.5788  -15.6605 N   0  3  0  0  0  0  0  0  0  0  0  0
  -25.1343   33.6490  -15.2803 C   0  0  0  0  0  0  0  0  0  0  0  0
  -25.4278   34.7890  -16.2669 C   0  0  1  0  0  0  0  0  0  0  0  0
  -26.8386   34.9007  -16.5469 O   0  0  0  0  0  0  0  0  0  0  0  0
  -24.9776   36.1482  -15.7290 C   0  0  1  0  0  0  0  0  0  0  0  0
  -27.1951   36.2854  -16.4956 C   0  0  2  0  0  0  0  0  0  0  0  0
  -23.6049   36.4117  -15.9984 O   0  0  0  0  0  0  0  0  0  0  0  0
  -25.8971   37.0968  -16.4775 C   0  0  2  0  0  0  0  0  0  0  0  0
  -27.9221   36.5021  -15.3021 O   0  0  0  0  0  0  0  0  0  0  0  0
  -25.3611   37.3041  -17.7974 O   0  0  0  0  0  0  0  0  0  0  0  0
  -26.1140   30.4993  -17.0101 H   0  0  0  0  0  0  0  0  0  0  0  0
  -25.3898   28.0402  -18.2020 H   0  0  0  0  0  0  0  0  0  0  0  0
  -25.4440   28.4038  -16.5774 H   0  0  0  0  0  0  0  0  0  0  0  0
  -24.0530   28.6881  -17.4484 H   0  0  0  0  0  0  0  0  0  0  0  0
  -24.1397   31.0491  -19.0603 H   0  0  0  0  0  0  0  0  0  0  0  0
  -23.5071   30.5376  -17.4913 H   0  0  0  0  0  0  0  0  0  0  0  0
  -25.5662   32.6804  -17.6804 H   0  0  0  0  0  0  0  0  0  0  0  0
  -23.8343   33.0209  -17.8851 H   0  0  0  0  0  0  0  0  0  0  0  0
  -24.7961   31.5833  -15.4689 H   0  0  0  0  0  0  0  0  0  0  0  0
  -22.7317   32.2184  -14.7297 H   0  0  0  0  0  0  0  0  0  0  0  0
  -22.6644   33.5588  -15.7161 H   0  0  0  0  0  0  0  0  0  0  0  0
  -22.4280   32.0400  -16.3576 H   0  0  0  0  0  0  0  0  0  0  0  0
  -24.5388   34.0380  -14.4810 H   0  0  0  0  0  0  0  0  0  0  0  0
  -26.0780   33.2770  -14.9397 H   0  0  0  0  0  0  0  0  0  0  0  0
  -24.8821   34.5410  -17.1533 H   0  0  0  0  0  0  0  0  0  0  0  0
  -25.0441   36.2294  -14.6642 H   0  0  0  0  0  0  0  0  0  0  0  0
  -27.7917   36.5767  -17.3347 H   0  0  0  0  0  0  0  0  0  0  0  0
  -23.1373   36.5754  -15.1645 H   0  0  0  0  0  0  0  0  0  0  0  0
  -26.0226   38.0725  -16.0569 H   0  0  0  0  0  0  0  0  0  0  0  0
  -27.3256   36.4235  -14.5412 H   0  0  0  0  0  0  0  0  0  0  0  0
  -24.4370   37.5910  -17.7298 H   0  0  0  0  0  0  0  0  0  0  0  0
  1  2  2  0  0  0  0
  2  3  1  0  0  0  0
  2  4  1  0  0  0  0
  4  5  1  0  0  0  0
  4  6  1  0  0  0  0
  4 19  1  0  0  0  0
  5 20  1  0  0  0  0
  5 21  1  0  0  0  0
  5 22  1  0  0  0  0
  6  7  1  0  0  0  0
  6 23  1  0  0  0  0
  6 24  1  0  0  0  0
  7  8  1  0  0  0  0
  7 25  1  0  0  0  0
  7 26  1  0  0  0  0
  8  9  1  0  0  0  0
  8 10  1  0  0  0  0
  8 27  1  0  0  0  0
  9 28  1  0  0  0  0
  9 29  1  0  0  0  0
  9 30  1  0  0  0  0
 10 11  1  0  0  0  0
 10 31  1  0  0  0  0
 10 32  1  0  0  0  0
 11 12  1  0  0  0  0
 11 13  1  0  0  0  0
 11 33  1  0  0  0  0
 12 14  1  0  0  0  0
 13 15  1  0  0  0  0
 13 16  1  0  0  0  0
 13 34  1  0  0  0  0
 14 17  1  0  0  0  0
 14 16  1  0  0  0  0
 14 35  1  0  0  0  0
 15 36  1  0  0  0  0
 16 18  1  0  0  0  0
 16 37  1  0  0  0  0
 17 38  1  0  0  0  0
 18 39  1  0  0  0  0
M  CHG  1   3  -1
M  CHG  1   5   1
M  CHG  1   9   1
M  END
>  <Column 1>
NC(CC[C@H](N)C(=O)O)C[C@H]1O[C@@H](O)[C@H](O)[C@@H]1O

>  <Total Molweight>
264.277

>  <cLogP>
-6.4811

>  <cLogS>
-0.564

>  <H-Acceptors>
8

>  <H-Donors>
6

>  <Total Surface Area>
186.47

>  <MMFF94 Energy>
78.133

> <Gold.Version>
5.8.1

> <Gold.Id.Protein>
ID|2FQT|mol2

> <Gold.PLP.Fitness>
65.8123

> <Gold.PLP.PLP>
-34.9752

> <Gold.PLP.part.hbond>
-4.9839

> <Gold.PLP.part.metal>
-2.0000

> <Gold.PLP.part.buried>
2.9332

> <Gold.PLP.part.nonpolar>
-33.0554

> <Gold.PLP.part.repulsive>
0.2442

> <Gold.PLP.ligand.clash>
0.0000

> <Gold.PLP.ligand.torsion>
2.0859

> <Gold.PLP.Chemscore.Hbond>
3.6825

> <Gold.PLP.Chemscore.CHOScore>
0.0000

> <Gold.PLP.Chemscore.Metal>
3.9703

> <Gold.Chemscore.Hbonds>
donor molecule, donor type, donor heavy atom, donor atom, acceptor molecule, acceptor atom, score
      L1  H     5    21       P1   426  2.00
      L1  H    17    38       P1   431  0.68
      P1  H   966  2177       L1     1  1.00
      P1  M  1222  1222       L1     1  1.97
      P1  M  1222  1222       L1     3  2.00

> <Gold.PLP.Chemscore.Internal.Correction>
0.1396

> <Gold.Protein.RotatedTorsions>
[ 1849  621  620  617 ] final  163.66 input   60.00 | X-H torsion

> <Gold.Protein.ActiveResidues>
 HIS54   GLU57   HIS58   ALA61   PHE62   ILE76   ILE77   ASP78   ILE79   SER80  
 PRO81   GLN125  CYS126  GLY127  GLN128  HIS132  CO701  

> <Gold.Protein.RotatedAtoms>
  -18.1471   27.4875  -13.6383 H   0  0  0  0  0  0  0  0  0  0  0  0  # atno 1849 bound_to 621 
  -18.7406   28.8111  -12.9009 LP  0  0  0  0  0  0  0  0  0  0  0  0  # atno 2431 bound_to 621 
  -19.6992   27.9159  -13.8737 LP  0  0  0  0  0  0  0  0  0  0  0  0  # atno 2432 bound_to 621 

$$$$
Compound 5|DecoysActives|sdf|5|dock3
  -GOLD-   6112412113D 1   1.00000     0.00000

 20 19  0  0  0  0  0  0  0  0  3 V2000
  -25.1818   32.8604  -15.9925 S   0  0  0  0  0  0  0  0  0  0  0  0
  -24.8297   32.3596  -17.7147 C   0  0  0  0  0  0  0  0  0  0  0  0
  -25.8996   34.4935  -16.2968 C   0  0  0  0  0  0  0  0  0  0  0  0
  -24.4530   30.8787  -17.8052 C   0  0  0  0  0  0  0  0  0  0  0  0
  -25.6583   29.9314  -17.7414 C   0  0  2  0  0  0  0  0  0  0  0  0
  -25.2182   28.5398  -17.4991 N   0  3  0  0  0  0  0  0  0  0  0  0
  -26.5367   30.0184  -18.9979 C   0  0  0  0  0  0  0  0  0  0  0  0
  -26.8687   29.0999  -19.7287 O   0  0  0  0  0  0  0  0  0  0  0  0
  -26.8883   31.2895  -19.3055 O   0  5  0  0  0  0  0  0  0  0  0  0
  -24.0178   32.9479  -18.0883 H   0  0  0  0  0  0  0  0  0  0  0  0
  -25.7143   32.5160  -18.2961 H   0  0  0  0  0  0  0  0  0  0  0  0
  -26.1710   34.9431  -15.3645 H   0  0  0  0  0  0  0  0  0  0  0  0
  -26.7701   34.3918  -16.9105 H   0  0  0  0  0  0  0  0  0  0  0  0
  -25.1820   35.1113  -16.7951 H   0  0  0  0  0  0  0  0  0  0  0  0
  -23.7973   30.6465  -16.9922 H   0  0  0  0  0  0  0  0  0  0  0  0
  -23.9892   30.7313  -18.7582 H   0  0  0  0  0  0  0  0  0  0  0  0
  -26.2633   30.2469  -16.9172 H   0  0  0  0  0  0  0  0  0  0  0  0
  -25.7154   27.9112  -18.1300 H   0  0  0  0  0  0  0  0  0  0  0  0
  -25.4208   28.2824  -16.5332 H   0  0  0  0  0  0  0  0  0  0  0  0
  -24.2148   28.4665  -17.6672 H   0  0  0  0  0  0  0  0  0  0  0  0
  1  2  1  0  0  0  0
  1  3  1  0  0  0  0
  2  4  1  0  0  0  0
  2 10  1  0  0  0  0
  2 11  1  0  0  0  0
  3 12  1  0  0  0  0
  3 13  1  0  0  0  0
  3 14  1  0  0  0  0
  4  5  1  0  0  0  0
  4 15  1  0  0  0  0
  4 16  1  0  0  0  0
  5  6  1  0  0  0  0
  5  7  1  0  0  0  0
  5 17  1  0  0  0  0
  6 18  1  0  0  0  0
  6 19  1  0  0  0  0
  6 20  1  0  0  0  0
  7  8  2  0  0  0  0
  7  9  1  0  0  0  0
M  CHG  1   6   1
M  CHG  1   9  -1
M  END
>  <Column 1>
CSCC[C@H](N)C(=O)O

>  <Total Molweight>
149.213

>  <cLogP>
-2.3875

>  <cLogS>
-1.051

>  <H-Acceptors>
3

>  <H-Donors>
2

>  <Total Surface Area>
115.89

>  <MMFF94 Energy>
23.911

> <Gold.Version>
5.8.1

> <Gold.Id.Protein>
ID|2FQT|mol2

> <Gold.PLP.Fitness>
50.1673

> <Gold.PLP.PLP>
-17.9163

> <Gold.PLP.part.hbond>
-2.0000

> <Gold.PLP.part.metal>
-2.0000

> <Gold.PLP.part.buried>
5.0345

> <Gold.PLP.part.nonpolar>
-19.0747

> <Gold.PLP.part.repulsive>
0.1497

> <Gold.PLP.ligand.clash>
0.0000

> <Gold.PLP.ligand.torsion>
0.2382

> <Gold.PLP.Chemscore.Hbond>
3.0000

> <Gold.PLP.Chemscore.CHOScore>
0.0000

> <Gold.PLP.Chemscore.Metal>
3.9461

> <Gold.Chemscore.Hbonds>
donor molecule, donor type, donor heavy atom, donor atom, acceptor molecule, acceptor atom, score
      L1  H     6    19       P1   426  2.00
      P1  H   966  2177       L1     8  1.00
      P1  M  1222  1222       L1     8  1.97
      P1  M  1222  1222       L1     9  1.97

> <Gold.PLP.Chemscore.Internal.Correction>
0.0506

> <Gold.Protein.RotatedTorsions>
[ 1849  621  620  617 ] final  140.18 input   60.00 | X-H torsion

> <Gold.Protein.ActiveResidues>
 HIS54   GLU57   HIS58   ALA61   PHE62   ILE76   ILE77   ASP78   ILE79   SER80  
 PRO81   GLN125  CYS126  GLY127  GLN128  HIS132  CO701  

> <Gold.Protein.RotatedAtoms>
  -17.9872   27.7401  -13.4022 H   0  0  0  0  0  0  0  0  0  0  0  0  # atno 1849 bound_to 621 
  -19.1088   28.8490  -13.0016 LP  0  0  0  0  0  0  0  0  0  0  0  0  # atno 2431 bound_to 621 
  -19.4920   27.6236  -14.0107 LP  0  0  0  0  0  0  0  0  0  0  0  0  # atno 2432 bound_to 621 

$$$$
Compound 6|DecoysActives|sdf|6|dock3
  -GOLD-   6112412113D 1   1.00000     0.00000

 28 27  0  0  0  0  0  0  0  0  4 V2000
  -27.0822   29.5855  -19.9650 O   0  0  0  0  0  0  0  0  0  0  0  0
  -26.3692   30.2871  -19.2651 C   0  0  0  0  0  0  0  0  0  0  0  0
  -26.1799   29.9695  -17.9615 O   0  5  0  0  0  0  0  0  0  0  0  0
  -25.6801   31.6012  -19.6618 C   0  0  1  0  0  0  0  0  0  0  0  0
  -25.9614   31.9364  -21.0724 N   0  3  0  0  0  0  0  0  0  0  0  0
  -26.0591   32.7603  -18.7293 C   0  0  0  0  0  0  0  0  0  0  0  0
  -25.3358   32.7542  -17.3742 C   0  0  0  0  0  0  0  0  0  0  0  0
  -25.8972   33.8392  -16.4497 C   0  0  0  0  0  0  0  0  0  0  0  0
  -25.7430   35.2547  -17.0117 C   0  0  0  0  0  0  0  0  0  0  0  0
  -26.1508   36.2933  -16.0765 N   0  3  0  0  0  0  0  0  0  0  0  0
  -25.4692   36.2975  -14.8484 O   0  0  0  0  0  0  0  0  0  0  0  0
  -27.2635   37.0759  -16.1928 C   0  0  0  0  0  0  0  0  0  0  0  0
  -27.4562   37.9252  -17.0543 O   0  0  0  0  0  0  0  0  0  0  0  0
  -24.6261   31.4507  -19.5555 H   0  0  0  0  0  0  0  0  0  0  0  0
  -25.1042   32.2567  -21.5232 H   0  0  0  0  0  0  0  0  0  0  0  0
  -26.6633   32.6754  -21.1129 H   0  0  0  0  0  0  0  0  0  0  0  0
  -26.3108   31.1088  -21.5555 H   0  0  0  0  0  0  0  0  0  0  0  0
  -27.1120   32.7102  -18.5457 H   0  0  0  0  0  0  0  0  0  0  0  0
  -25.7618   33.6594  -19.2274 H   0  0  0  0  0  0  0  0  0  0  0  0
  -24.2930   32.9344  -17.5329 H   0  0  0  0  0  0  0  0  0  0  0  0
  -25.4844   31.8008  -16.9118 H   0  0  0  0  0  0  0  0  0  0  0  0
  -25.3814   33.7877  -15.5136 H   0  0  0  0  0  0  0  0  0  0  0  0
  -26.9456   33.6534  -16.3438 H   0  0  0  0  0  0  0  0  0  0  0  0
  -26.3433   35.3371  -17.8937 H   0  0  0  0  0  0  0  0  0  0  0  0
  -24.7033   35.4029  -17.2162 H   0  0  0  0  0  0  0  0  0  0  0  0
  -25.5566   35.5118  -16.0020 H   0  0  0  0  0  0  0  0  0  0  0  0
  -26.1118   36.3060  -14.1219 H   0  0  0  0  0  0  0  0  0  0  0  0
  -28.0089   36.9398  -15.4923 H   0  0  0  0  0  0  0  0  0  0  0  0
  1  2  2  0  0  0  0
  2  3  1  0  0  0  0
  2  4  1  0  0  0  0
  4  5  1  0  0  0  0
  4  6  1  0  0  0  0
  4 14  1  0  0  0  0
  5 15  1  0  0  0  0
  5 16  1  0  0  0  0
  5 17  1  0  0  0  0
  6  7  1  0  0  0  0
  6 18  1  0  0  0  0
  6 19  1  0  0  0  0
  7  8  1  0  0  0  0
  7 20  1  0  0  0  0
  7 21  1  0  0  0  0
  8  9  1  0  0  0  0
  8 22  1  0  0  0  0
  8 23  1  0  0  0  0
  9 10  1  0  0  0  0
  9 24  1  0  0  0  0
  9 25  1  0  0  0  0
 10 11  1  0  0  0  0
 10 12  1  0  0  0  0
 10 26  1  0  0  0  0
 11 27  1  0  0  0  0
 12 13  2  0  0  0  0
 12 28  1  0  0  0  0
M  CHG  1   3  -1
M  CHG  1   5   1
M  CHG  1  10   1
M  END
>  <Column 1>
N[C@@H](CCCCN(O)C=O)C(=O)O

>  <Total Molweight>
190.198

>  <cLogP>
-3.3461

>  <cLogS>
-0.93

>  <H-Acceptors>
6

>  <H-Donors>
3

>  <Total Surface Area>
149.85

>  <MMFF94 Energy>
43.771

> <Gold.Version>
5.8.1

> <Gold.Id.Protein>
ID|2FQT|mol2

> <Gold.PLP.Fitness>
61.2826

> <Gold.PLP.PLP>
-28.9313

> <Gold.PLP.part.hbond>
-3.7756

> <Gold.PLP.part.metal>
-2.0000

> <Gold.PLP.part.buried>
-2.1271

> <Gold.PLP.part.nonpolar>
-22.7777

> <Gold.PLP.part.repulsive>
0.4036

> <Gold.PLP.ligand.clash>
0.0000

> <Gold.PLP.ligand.torsion>
0.6427

> <Gold.PLP.Chemscore.Hbond>
3.0000

> <Gold.PLP.Chemscore.CHOScore>
0.0000

> <Gold.PLP.Chemscore.Metal>
3.9897

> <Gold.Chemscore.Hbonds>
donor molecule, donor type, donor heavy atom, donor atom, acceptor molecule, acceptor atom, score
      L1  H     5    16       P1   954  1.00
      L1  H    11    27       P1   431  1.00
      P1  H   966  2177       L1     1  1.00
      P1  M  1222  1222       L1     1  2.00
      P1  M  1222  1222       L1     3  1.99

> <Gold.PLP.Chemscore.Internal.Correction>
0.6985

> <Gold.Protein.RotatedTorsions>
[ 1849  621  620  617 ] final -116.73 input   60.00 | X-H torsion

> <Gold.Protein.ActiveResidues>
 HIS54   GLU57   HIS58   ALA61   PHE62   ILE76   ILE77   ASP78   ILE79   SER80  
 PRO81   GLN125  CYS126  GLY127  GLN128  HIS132  CO701  

> <Gold.Protein.RotatedAtoms>
  -19.2729   27.4595  -14.0490 H   0  0  0  0  0  0  0  0  0  0  0  0  # atno 1849 bound_to 621 
  -17.9542   27.9592  -13.2370 LP  0  0  0  0  0  0  0  0  0  0  0  0  # atno 2431 bound_to 621 
  -19.3519   28.7960  -13.1240 LP  0  0  0  0  0  0  0  0  0  0  0  0  # atno 2432 bound_to 621 

$$$$
Compound 7|DecoysActives|sdf|7|dock4
  -GOLD-   6112412113D 1   1.00000     0.00000

 19 18  0  0  0  0  0  0  0  0  1 V2000
  -27.1270   31.1996  -19.2954 O   0  0  0  0  0  0  0  0  0  0  0  0
  -26.1705   31.1944  -20.0690 C   0  0  0  0  0  0  0  0  0  0  0  0
  -25.6016   32.3497  -20.5396 N   0  0  0  0  0  0  0  0  0  0  0  0
  -25.5092   29.9077  -20.5693 C   0  0  2  0  0  0  0  0  0  0  0  0
  -26.1615   33.5688  -20.1065 O   0  0  0  0  0  0  0  0  0  0  0  0
  -25.9064   29.6498  -21.9169 O   0  0  0  0  0  0  0  0  0  0  0  0
  -25.8924   28.7293  -19.6604 C   0  0  2  0  0  0  0  0  0  0  0  0
  -27.3157   28.5252  -19.6217 O   0  0  0  0  0  0  0  0  0  0  0  0
  -25.4174   28.9339  -18.2164 C   0  0  0  0  0  0  0  0  0  0  0  0
  -26.4851   29.4713  -17.4332 O   0  0  0  0  0  0  0  0  0  0  0  0
  -24.8334   32.3287  -21.1549 H   0  0  0  0  0  0  0  0  0  0  0  0
  -24.4461   30.0260  -20.5414 H   0  0  0  0  0  0  0  0  0  0  0  0
  -27.0387   33.6814  -20.5050 H   0  0  0  0  0  0  0  0  0  0  0  0
  -25.1630   29.2620  -22.4045 H   0  0  0  0  0  0  0  0  0  0  0  0
  -25.4075   27.8751  -20.0850 H   0  0  0  0  0  0  0  0  0  0  0  0
  -27.5688   28.1768  -18.7525 H   0  0  0  0  0  0  0  0  0  0  0  0
  -24.5909   29.6134  -18.2061 H   0  0  0  0  0  0  0  0  0  0  0  0
  -25.1128   27.9941  -17.8055 H   0  0  0  0  0  0  0  0  0  0  0  0
  -26.2097   29.5249  -16.5046 H   0  0  0  0  0  0  0  0  0  0  0  0
  1  2  2  0  0  0  0
  2  3  1  0  0  0  0
  2  4  1  0  0  0  0
  3  5  1  0  0  0  0
  3 11  1  0  0  0  0
  4  6  1  0  0  0  0
  4  7  1  0  0  0  0
  4 12  1  0  0  0  0
  5 13  1  0  0  0  0
  6 14  1  0  0  0  0
  7  8  1  0  0  0  0
  7  9  1  0  0  0  0
  7 15  1  0  0  0  0
  8 16  1  0  0  0  0
  9 10  1  0  0  0  0
  9 17  1  0  0  0  0
  9 18  1  0  0  0  0
 10 19  1  0  0  0  0
M  END
>  <Column 1>
O=C(NO)[C@H](O)[C@H](O)CO

>  <Total Molweight>
151.117

>  <cLogP>
-2.875

>  <cLogS>
0.031

>  <H-Acceptors>
6

>  <H-Donors>
5

>  <Total Surface Area>
106.87

>  <MMFF94 Energy>
90.051

> <Gold.Version>
5.8.1

> <Gold.Id.Protein>
ID|2FQT|mol2

> <Gold.PLP.Fitness>
46.9326

> <Gold.PLP.PLP>
-21.8487

> <Gold.PLP.part.hbond>
-4.6336

> <Gold.PLP.part.metal>
-3.0000

> <Gold.PLP.part.buried>
-3.3851

> <Gold.PLP.part.nonpolar>
-11.0509

> <Gold.PLP.part.repulsive>
0.1364

> <Gold.PLP.ligand.clash>
0.0000

> <Gold.PLP.ligand.torsion>
0.9266

> <Gold.PLP.Chemscore.Hbond>
2.9760

> <Gold.PLP.Chemscore.CHOScore>
0.0000

> <Gold.PLP.Chemscore.Metal>
2.9998

> <Gold.Chemscore.Hbonds>
donor molecule, donor type, donor heavy atom, donor atom, acceptor molecule, acceptor atom, score
      L1  H     5    13       P1   954  1.00
      L1  H    10    19       P1   426  1.00
      P1  H   966  2177       L1     8  0.98
      P1  M  1222  1222       L1     1  1.00
      P1  M  1222  1222       L1     8  1.00
      P1  M  1222  1222       L1    10  1.00

> <Gold.PLP.Chemscore.Internal.Correction>
0.0106

> <Gold.Protein.RotatedTorsions>
[ 1849  621  620  617 ] final -161.74 input   60.00 | X-H torsion

> <Gold.Protein.ActiveResidues>
 HIS54   GLU57   HIS58   ALA61   PHE62   ILE76   ILE77   ASP78   ILE79   SER80  
 PRO81   GLN125  CYS126  GLY127  GLN128  HIS132  CO701  

> <Gold.Protein.RotatedAtoms>
  -18.5855   27.2989  -13.9252 H   0  0  0  0  0  0  0  0  0  0  0  0  # atno 1849 bound_to 621 
  -18.2511   28.5388  -12.9257 LP  0  0  0  0  0  0  0  0  0  0  0  0  # atno 2431 bound_to 621 
  -19.7473   28.3782  -13.5599 LP  0  0  0  0  0  0  0  0  0  0  0  0  # atno 2432 bound_to 621 

$$$$
Compound 1|DecoysActives|sdf|8|dock17
  -GOLD-   6112412123D 1   1.00000     0.00000

 38 40  0  0  0  0  0  0  0  0  1 V2000
  -27.7038   36.7203  -16.5126 O   0  0  0  0  0  0  0  0  0  0  0  0
  -26.6381   37.3437  -16.5187 C   0  0  0  0  0  0  0  0  0  0  0  0
  -25.4787   36.8165  -15.9185 N   0  0  0  0  0  0  0  0  0  0  0  0
  -26.5345   38.6087  -17.1347 N   0  0  0  0  0  0  0  0  0  0  0  0
  -24.3352   37.5837  -15.9863 C   0  0  0  0  0  0  0  0  0  0  0  0
  -25.5403   35.5031  -15.2751 C   0  0  0  0  0  0  0  0  0  0  0  0
  -25.3796   39.4064  -17.2247 C   0  0  0  0  0  0  0  0  0  0  0  0
  -27.7480   39.1195  -17.7415 C   0  0  0  0  0  0  0  0  0  0  0  0
  -23.0978   37.3066  -15.4848 N   0  0  0  0  0  0  0  0  0  0  0  0
  -24.2288   38.8066  -16.5874 C   0  0  0  0  0  0  0  0  0  0  0  0
  -25.1617   34.3451  -16.2162 C   0  0  1  0  0  0  0  0  0  0  0  0
  -25.3396   40.4993  -17.7844 O   0  0  0  0  0  0  0  0  0  0  0  0
  -22.2819   38.3695  -15.8046 C   0  0  0  0  0  0  0  0  0  0  0  0
  -22.9478   39.2924  -16.4726 N   0  0  0  0  0  0  0  0  0  0  0  0
  -25.0217   33.0433  -15.4021 C   0  0  0  0  0  0  0  0  0  0  0  0
  -26.1785   34.1500  -17.3523 C   0  0  0  0  0  0  0  0  0  0  0  0
  -20.8515   38.4114  -15.4201 C   0  0  0  0  0  0  0  0  0  0  0  0
  -24.9150   31.8178  -16.2604 C   0  0  0  0  0  0  0  0  0  0  0  0
  -25.7604   33.0109  -18.2882 C   0  0  0  0  0  0  0  0  0  0  0  0
  -25.2340   31.8085  -17.5625 C   0  0  0  0  0  0  0  0  0  0  0  0
  -26.5437   35.3354  -14.8664 H   0  0  0  0  0  0  0  0  0  0  0  0
  -24.8601   35.5278  -14.4143 H   0  0  0  0  0  0  0  0  0  0  0  0
  -28.0697   38.4260  -18.5257 H   0  0  0  0  0  0  0  0  0  0  0  0
  -28.5352   39.1649  -16.9815 H   0  0  0  0  0  0  0  0  0  0  0  0
  -27.6201   40.1131  -18.1778 H   0  0  0  0  0  0  0  0  0  0  0  0
  -22.8161   36.4800  -14.9782 H   0  0  0  0  0  0  0  0  0  0  0  0
  -24.1875   34.5652  -16.6744 H   0  0  0  0  0  0  0  0  0  0  0  0
  -25.8782   32.9157  -14.7286 H   0  0  0  0  0  0  0  0  0  0  0  0
  -24.1268   33.1131  -14.7719 H   0  0  0  0  0  0  0  0  0  0  0  0
  -27.1665   33.9283  -16.9278 H   0  0  0  0  0  0  0  0  0  0  0  0
  -26.2859   35.0655  -17.9447 H   0  0  0  0  0  0  0  0  0  0  0  0
  -20.3854   39.3374  -15.7707 H   0  0  0  0  0  0  0  0  0  0  0  0
  -20.3099   37.5687  -15.8606 H   0  0  0  0  0  0  0  0  0  0  0  0
  -20.7442   38.3658  -14.3320 H   0  0  0  0  0  0  0  0  0  0  0  0
  -24.5648   30.9035  -15.7874 H   0  0  0  0  0  0  0  0  0  0  0  0
  -26.6211   32.7190  -18.9008 H   0  0  0  0  0  0  0  0  0  0  0  0
  -24.9829   33.3658  -18.9754 H   0  0  0  0  0  0  0  0  0  0  0  0
  -25.1217   30.8921  -18.1375 H   0  0  0  0  0  0  0  0  0  0  0  0
  1  2  2  0  0  0  0
  2  3  1  0  0  0  0
  2  4  1  0  0  0  0
  3  5  1  0  0  0  0
  3  6  1  0  0  0  0
  4  7  1  0  0  0  0
  4  8  1  0  0  0  0
  5  9  1  0  0  0  0
  5 10  2  0  0  0  0
  6 11  1  0  0  0  0
  6 21  1  0  0  0  0
  6 22  1  0  0  0  0
  7 12  2  0  0  0  0
  7 10  1  0  0  0  0
  8 23  1  0  0  0  0
  8 24  1  0  0  0  0
  8 25  1  0  0  0  0
  9 13  1  0  0  0  0
  9 26  1  0  0  0  0
 10 14  1  0  0  0  0
 11 15  1  0  0  0  0
 11 16  1  0  0  0  0
 11 27  1  0  0  0  0
 13 17  1  0  0  0  0
 13 14  2  0  0  0  0
 15 18  1  0  0  0  0
 15 28  1  0  0  0  0
 15 29  1  0  0  0  0
 16 19  1  0  0  0  0
 16 30  1  0  0  0  0
 16 31  1  0  0  0  0
 17 32  1  0  0  0  0
 17 33  1  0  0  0  0
 17 34  1  0  0  0  0
 18 20  2  0  0  0  0
 18 35  1  0  0  0  0
 19 20  1  0  0  0  0
 19 36  1  0  0  0  0
 19 37  1  0  0  0  0
 20 38  1  0  0  0  0
M  END
>  <Column 1>
Cc1nc2c(=O)n(C)c(=O)n(C[C@H]3CC=CCC3)c2[nH]1 ZINC000000000499

>  <Total Molweight>
274.323

>  <cLogP>
1.3972

>  <cLogS>
-2.507

>  <H-Acceptors>
6

>  <H-Donors>
1

>  <Total Surface Area>
209.25

>  <MMFF94 Energy>
-15.608

> <Gold.Version>
5.8.1

> <Gold.Id.Protein>
ID|2FQT|mol2

> <Gold.PLP.Fitness>
51.5227

> <Gold.PLP.PLP>
-52.3280

> <Gold.PLP.part.hbond>
0.0000

> <Gold.PLP.part.metal>
0.0000

> <Gold.PLP.part.buried>
-6.1286

> <Gold.PLP.part.nonpolar>
-47.8593

> <Gold.PLP.part.repulsive>
0.3765

> <Gold.PLP.ligand.clash>
0.0000

> <Gold.PLP.ligand.torsion>
0.4038

> <Gold.PLP.Chemscore.Hbond>
0.0000

> <Gold.PLP.Chemscore.CHOScore>
0.0000

> <Gold.PLP.Chemscore.Metal>
0.0000

> <Gold.PLP.Chemscore.Internal.Correction>
0.0023

> <Gold.Protein.RotatedTorsions>
[ 1849  621  620  617 ] final -150.36 input   60.00 | X-H torsion

> <Gold.Protein.ActiveResidues>
 HIS54   GLU57   HIS58   ALA61   PHE62   ILE76   ILE77   ASP78   ILE79   SER80  
 PRO81   GLN125  CYS126  GLY127  GLN128  HIS132  CO701  

> <Gold.Protein.RotatedAtoms>
  -18.7601   27.2959  -13.9880 H   0  0  0  0  0  0  0  0  0  0  0  0  # atno 1849 bound_to 621 
  -18.1304   28.4062  -12.9786 LP  0  0  0  0  0  0  0  0  0  0  0  0  # atno 2431 bound_to 621 
  -19.6921   28.5138  -13.4437 LP  0  0  0  0  0  0  0  0  0  0  0  0  # atno 2432 bound_to 621 

$$$$
Compound 2|DecoysActives|sdf|9|dock2
  -GOLD-   6112412123D 1   1.00000     0.00000

 32 33  0  0  0  0  0  0  0  0  3 V2000
  -24.2825   37.6863  -16.2997 S   0  0  0  0  0  0  0  0  0  0  0  0
  -25.0524   38.8938  -16.5364 O   0  0  0  0  0  0  0  0  0  0  0  0
  -22.9982   37.7691  -15.6292 O   0  0  0  0  0  0  0  0  0  0  0  0
  -25.2923   36.5386  -15.4071 C   0  0  0  0  0  0  0  0  0  0  0  0
  -24.0367   36.8769  -17.8525 C   0  0  0  0  0  0  0  0  0  0  0  0
  -26.4587   36.0107  -16.2372 C   0  0  2  0  0  0  0  0  0  0  0  0
  -25.3672   36.4106  -18.4080 C   0  0  0  0  0  0  0  0  0  0  0  0
  -26.0516   35.4250  -17.5413 N   0  0  0  0  0  0  0  0  0  0  0  0
  -27.6101   37.0113  -16.3895 C   0  0  0  0  0  0  0  0  0  0  0  0
  -25.3860   34.2406  -17.4301 N   0  0  0  0  0  0  0  0  0  0  0  0
  -26.0454   33.2412  -17.9308 C   0  0  0  0  0  0  0  0  0  0  0  0
  -25.5125   31.9056  -17.9110 C   0  0  0  0  0  0  0  0  0  0  0  0
  -26.2705   30.8728  -18.3996 O   0  0  0  0  0  0  0  0  0  0  0  0
  -24.2956   31.4185  -17.4633 C   0  0  0  0  0  0  0  0  0  0  0  0
  -25.5251   29.7464  -18.2553 C   0  0  0  0  0  0  0  0  0  0  0  0
  -24.3036   30.0169  -17.6867 C   0  0  0  0  0  0  0  0  0  0  0  0
  -26.1156   28.5239  -18.7015 N   0  3  0  0  0  0  0  0  0  0  0  0
  -25.5686   27.4623  -18.3806 O   0  0  0  0  0  0  0  0  0  0  0  0
  -27.1437   28.6337  -19.3843 O   0  5  0  0  0  0  0  0  0  0  0  0
  -25.6386   37.0423  -14.4991 H   0  0  0  0  0  0  0  0  0  0  0  0
  -24.6354   35.7152  -15.1040 H   0  0  0  0  0  0  0  0  0  0  0  0
  -23.3426   36.0456  -17.6941 H   0  0  0  0  0  0  0  0  0  0  0  0
  -23.5626   37.5973  -18.5259 H   0  0  0  0  0  0  0  0  0  0  0  0
  -26.8958   35.1883  -15.6522 H   0  0  0  0  0  0  0  0  0  0  0  0
  -26.0260   37.2615  -18.6116 H   0  0  0  0  0  0  0  0  0  0  0  0
  -25.1941   35.9444  -19.3865 H   0  0  0  0  0  0  0  0  0  0  0  0
  -27.3408   37.9028  -16.9598 H   0  0  0  0  0  0  0  0  0  0  0  0
  -27.9592   37.3420  -15.4052 H   0  0  0  0  0  0  0  0  0  0  0  0
  -28.4606   36.5409  -16.8962 H   0  0  0  0  0  0  0  0  0  0  0  0
  -27.0414   33.3766  -18.3917 H   0  0  0  0  0  0  0  0  0  0  0  0
  -23.4978   32.0054  -17.0273 H   0  0  0  0  0  0  0  0  0  0  0  0
  -23.5249   29.2998  -17.4637 H   0  0  0  0  0  0  0  0  0  0  0  0
  1  2  2  0  0  0  0
  1  3  2  0  0  0  0
  1  4  1  0  0  0  0
  1  5  1  0  0  0  0
  4  6  1  0  0  0  0
  4 20  1  0  0  0  0
  4 21  1  0  0  0  0
  5  7  1  0  0  0  0
  5 22  1  0  0  0  0
  5 23  1  0  0  0  0
  6  8  1  0  0  0  0
  6  9  1  0  0  0  0
  6 24  1  0  0  0  0
  7  8  1  0  0  0  0
  7 25  1  0  0  0  0
  7 26  1  0  0  0  0
  8 10  1  0  0  0  0
  9 27  1  0  0  0  0
  9 28  1  0  0  0  0
  9 29  1  0  0  0  0
 10 11  2  0  0  0  0
 11 12  1  0  0  0  0
 11 30  1  0  0  0  0
 12 13  1  0  0  0  0
 12 14  2  0  0  0  0
 13 15  1  0  0  0  0
 14 16  1  0  0  0  0
 14 31  1  0  0  0  0
 15 17  1  0  0  0  0
 15 16  2  0  0  0  0
 16 32  1  0  0  0  0
 17 18  2  0  0  0  0
 17 19  1  0  0  0  0
M  CHG  1  17   1
M  CHG  1  19  -1
M  END
>  <Column 1>
C[C@@H]1CS(=O)(=O)CCN1/N=C/c1ccc([N+](=O)[O-])o1 ZINC000000000542

>  <Total Molweight>
287.295

>  <cLogP>
-0.2513

>  <cLogS>
-3.005

>  <H-Acceptors>
7

>  <H-Donors>
0

>  <Total Surface Area>
202.8

>  <MMFF94 Energy>
58.942

> <Gold.Version>
5.8.1

> <Gold.Id.Protein>
ID|2FQT|mol2

> <Gold.PLP.Fitness>
48.9775

> <Gold.PLP.PLP>
-34.4731

> <Gold.PLP.part.hbond>
-1.0000

> <Gold.PLP.part.metal>
-1.9603

> <Gold.PLP.part.buried>
-2.8046

> <Gold.PLP.part.nonpolar>
-29.2266

> <Gold.PLP.part.repulsive>
0.2419

> <Gold.PLP.ligand.clash>
0.0000

> <Gold.PLP.ligand.torsion>
0.0939

> <Gold.PLP.Chemscore.Hbond>
1.0000

> <Gold.PLP.Chemscore.CHOScore>
0.0000

> <Gold.PLP.Chemscore.Metal>
1.9399

> <Gold.Chemscore.Hbonds>
donor molecule, donor type, donor heavy atom, donor atom, acceptor molecule, acceptor atom, score
      P1  H   966  2177       L1    19  1.00
      P1  M  1222  1222       L1    13  0.94
      P1  M  1222  1222       L1    19  1.00

> <Gold.PLP.Chemscore.Internal.Correction>
0.0527

> <Gold.Protein.RotatedTorsions>
[ 1849  621  620  617 ] final -142.49 input   60.00 | X-H torsion

> <Gold.Protein.ActiveResidues>
 HIS54   GLU57   HIS58   ALA61   PHE62   ILE76   ILE77   ASP78   ILE79   SER80  
 PRO81   GLN125  CYS126  GLY127  GLN128  HIS132  CO701  

> <Gold.Protein.RotatedAtoms>
  -18.8836   27.3116  -14.0196 H   0  0  0  0  0  0  0  0  0  0  0  0  # atno 1849 bound_to 621 
  -18.0635   28.3064  -13.0267 LP  0  0  0  0  0  0  0  0  0  0  0  0  # atno 2431 bound_to 621 
  -19.6346   28.5977  -13.3638 LP  0  0  0  0  0  0  0  0  0  0  0  0  # atno 2432 bound_to 621 

$$$$
Compound 3|DecoysActives|sdf|10|dock2
  -GOLD-   6112412123D 1   1.00000     0.00000

 28 30  0  0  0  0  0  0  0  0  1 V2000
  -26.9844   29.7872  -19.8989 O   0  0  0  0  0  0  0  0  0  0  0  0
  -26.1189   30.6212  -19.7086 C   0  0  0  0  0  0  0  0  0  0  0  0
  -24.9409   30.7173  -20.3652 N   0  0  0  0  0  0  0  0  0  0  0  0
  -26.1844   31.6334  -18.7845 N   0  0  0  0  0  0  0  0  0  0  0  0
  -24.2154   31.7761  -19.9141 C   0  0  0  0  0  0  0  0  0  0  0  0
  -25.0038   32.4789  -18.7972 C   0  0  1  0  0  0  0  0  0  0  0  0
  -23.1161   32.1000  -20.3378 O   0  0  0  0  0  0  0  0  0  0  0  0
  -25.3136   33.9225  -19.1999 C   0  0  0  0  0  0  0  0  0  0  0  0
  -24.2336   32.4196  -17.4813 C   0  0  0  0  0  0  0  0  0  0  0  0
  -25.8604   34.7475  -18.0568 C   0  0  0  0  0  0  0  0  0  0  0  0
  -25.0368   33.0465  -16.3439 C   0  0  0  0  0  0  0  0  0  0  0  0
  -25.6946   34.3525  -16.7164 C   0  0  0  0  0  0  0  0  0  0  0  0
  -26.4993   35.9636  -18.3438 C   0  0  0  0  0  0  0  0  0  0  0  0
  -26.2038   35.1666  -15.6931 C   0  0  0  0  0  0  0  0  0  0  0  0
  -26.9920   36.7670  -17.3165 C   0  0  0  0  0  0  0  0  0  0  0  0
  -26.8466   36.3675  -15.9916 C   0  0  0  0  0  0  0  0  0  0  0  0
  -24.6513   30.0902  -21.0955 H   0  0  0  0  0  0  0  0  0  0  0  0
  -27.0011   31.7646  -18.2000 H   0  0  0  0  0  0  0  0  0  0  0  0
  -26.0289   33.9328  -20.0330 H   0  0  0  0  0  0  0  0  0  0  0  0
  -24.3998   34.4175  -19.5542 H   0  0  0  0  0  0  0  0  0  0  0  0
  -23.2824   32.9580  -17.5916 H   0  0  0  0  0  0  0  0  0  0  0  0
  -23.9717   31.3870  -17.2172 H   0  0  0  0  0  0  0  0  0  0  0  0
  -25.8218   32.3496  -16.0246 H   0  0  0  0  0  0  0  0  0  0  0  0
  -24.3687   33.1995  -15.4875 H   0  0  0  0  0  0  0  0  0  0  0  0
  -26.6161   36.2928  -19.3742 H   0  0  0  0  0  0  0  0  0  0  0  0
  -26.1002   34.8675  -14.6520 H   0  0  0  0  0  0  0  0  0  0  0  0
  -27.4882   37.7053  -17.5503 H   0  0  0  0  0  0  0  0  0  0  0  0
  -27.2324   36.9916  -15.1897 H   0  0  0  0  0  0  0  0  0  0  0  0
  1  2  2  0  0  0  0
  2  3  1  0  0  0  0
  2  4  1  0  0  0  0
  3  5  1  0  0  0  0
  3 17  1  0  0  0  0
  4  6  1  0  0  0  0
  4 18  1  0  0  0  0
  5  7  2  0  0  0  0
  6  8  1  0  0  0  0
  6  9  1  0  0  0  0
  6  5  1  0  0  0  0
  8 10  1  0  0  0  0
  8 19  1  0  0  0  0
  8 20  1  0  0  0  0
  9 11  1  0  0  0  0
  9 21  1  0  0  0  0
  9 22  1  0  0  0  0
 10 12  2  0  0  0  0
 10 13  1  0  0  0  0
 11 12  1  0  0  0  0
 11 23  1  0  0  0  0
 11 24  1  0  0  0  0
 12 14  1  0  0  0  0
 13 15  2  0  0  0  0
 13 25  1  0  0  0  0
 14 16  2  0  0  0  0
 14 26  1  0  0  0  0
 15 16  1  0  0  0  0
 15 27  1  0  0  0  0
 16 28  1  0  0  0  0
M  END
>  <Column 1>
O=C1NC(=O)[C@]2(CCc3ccccc3C2)N1 ZINC000000000754

>  <Total Molweight>
216.239

>  <cLogP>
1.0042

>  <cLogS>
-2.699

>  <H-Acceptors>
4

>  <H-Donors>
2

>  <Total Surface Area>
156.37

>  <MMFF94 Energy>
-44.744

> <Gold.Version>
5.8.1

> <Gold.Id.Protein>
ID|2FQT|mol2

> <Gold.PLP.Fitness>
42.2127

> <Gold.PLP.PLP>
-31.1519

> <Gold.PLP.part.hbond>
-1.0000

> <Gold.PLP.part.metal>
-1.0000

> <Gold.PLP.part.buried>
-2.8849

> <Gold.PLP.part.nonpolar>
-26.3951

> <Gold.PLP.part.repulsive>
0.8685

> <Gold.PLP.ligand.clash>
0.0000

> <Gold.PLP.ligand.torsion>
0.0000

> <Gold.PLP.Chemscore.Hbond>
1.6874

> <Gold.PLP.Chemscore.CHOScore>
0.0000

> <Gold.PLP.Chemscore.Metal>
0.9998

> <Gold.Chemscore.Hbonds>
donor molecule, donor type, donor heavy atom, donor atom, acceptor molecule, acceptor atom, score
      L1  H     4    18       P1   437  0.69
      P1  H   966  2177       L1     1  1.00
      P1  M  1222  1222       L1     1  1.00

> <Gold.PLP.Chemscore.Internal.Correction>
0.0000

> <Gold.Protein.RotatedTorsions>
[ 1849  621  620  617 ] final   31.96 input   60.00 | X-H torsion

> <Gold.Protein.ActiveResidues>
 HIS54   GLU57   HIS58   ALA61   PHE62   ILE76   ILE77   ASP78   ILE79   SER80  
 PRO81   GLN125  CYS126  GLY127  GLN128  HIS132  CO701  

> <Gold.Protein.RotatedAtoms>
  -18.9257   28.8395  -12.9419 H   0  0  0  0  0  0  0  0  0  0  0  0  # atno 1849 bound_to 621 
  -19.6116   27.7638  -13.9520 LP  0  0  0  0  0  0  0  0  0  0  0  0  # atno 2431 bound_to 621 
  -18.0441   27.6017  -13.5238 LP  0  0  0  0  0  0  0  0  0  0  0  0  # atno 2432 bound_to 621 

$$$$
Compound 4|DecoysActives|sdf|11|dock3
  -GOLD-   6112412123D 1   1.00000     0.00000

 27 28  0  0  0  0  0  0  0  0  1 V2000
  -25.0328   32.3874  -16.4298 N   0  0  0  0  0  0  0  0  0  0  0  0
  -25.2601   31.7323  -17.5954 N   0  0  0  0  0  0  0  0  0  0  0  0
  -25.5660   33.5891  -16.6354 C   0  0  0  0  0  0  0  0  0  0  0  0
  -25.9279   32.4964  -18.5377 C   0  0  0  0  0  0  0  0  0  0  0  0
  -24.7874   30.3738  -17.6914 C   0  0  0  0  0  0  0  0  0  0  0  0
  -26.1272   33.7168  -17.9238 C   0  0  0  0  0  0  0  0  0  0  0  0
  -25.5357   34.6800  -15.6251 C   0  0  0  0  0  0  0  0  0  0  0  0
  -26.3120   32.1399  -19.7908 N   0  0  0  0  0  0  0  0  0  0  0  0
  -26.7981   34.9573  -18.3959 C   0  0  0  0  0  0  0  0  0  0  0  0
  -26.5219   35.8010  -16.0004 C   0  0  0  0  0  0  0  0  0  0  0  0
  -26.1067   30.8654  -20.4298 C   0  0  0  0  0  0  0  0  0  0  0  0
  -26.4493   36.1571  -17.4960 C   0  0  0  0  0  0  0  0  0  0  0  0
  -24.2914   30.0918  -16.7579 H   0  0  0  0  0  0  0  0  0  0  0  0
  -24.0665   30.3084  -18.5083 H   0  0  0  0  0  0  0  0  0  0  0  0
  -25.6422   29.7140  -17.8512 H   0  0  0  0  0  0  0  0  0  0  0  0
  -24.5201   35.0915  -15.5801 H   0  0  0  0  0  0  0  0  0  0  0  0
  -25.7798   34.2942  -14.6292 H   0  0  0  0  0  0  0  0  0  0  0  0
  -26.8059   32.8227  -20.3615 H   0  0  0  0  0  0  0  0  0  0  0  0
  -26.5129   35.1825  -19.4296 H   0  0  0  0  0  0  0  0  0  0  0  0
  -27.8833   34.7982  -18.3817 H   0  0  0  0  0  0  0  0  0  0  0  0
  -27.5449   35.4832  -15.7604 H   0  0  0  0  0  0  0  0  0  0  0  0
  -26.3123   36.6890  -15.3936 H   0  0  0  0  0  0  0  0  0  0  0  0
  -26.5387   30.8899  -21.4359 H   0  0  0  0  0  0  0  0  0  0  0  0
  -26.6061   30.0600  -19.8845 H   0  0  0  0  0  0  0  0  0  0  0  0
  -25.0423   30.6416  -20.5422 H   0  0  0  0  0  0  0  0  0  0  0  0
  -27.1307   36.9869  -17.7157 H   0  0  0  0  0  0  0  0  0  0  0  0
  -25.4349   36.5056  -17.7292 H   0  0  0  0  0  0  0  0  0  0  0  0
  1  2  1  0  0  0  0
  1  3  2  0  0  0  0
  2  4  1  0  0  0  0
  2  5  1  0  0  0  0
  3  6  1  0  0  0  0
  3  7  1  0  0  0  0
  4  8  1  0  0  0  0
  4  6  2  0  0  0  0
  5 13  1  0  0  0  0
  5 14  1  0  0  0  0
  5 15  1  0  0  0  0
  6  9  1  0  0  0  0
  7 10  1  0  0  0  0
  7 16  1  0  0  0  0
  7 17  1  0  0  0  0
  8 11  1  0  0  0  0
  8 18  1  0  0  0  0
  9 12  1  0  0  0  0
  9 19  1  0  0  0  0
  9 20  1  0  0  0  0
 10 12  1  0  0  0  0
 10 21  1  0  0  0  0
 10 22  1  0  0  0  0
 11 23  1  0  0  0  0
 11 24  1  0  0  0  0
 11 25  1  0  0  0  0
 12 26  1  0  0  0  0
 12 27  1  0  0  0  0
M  END
>  <Column 1>
CNc1c2c(nn1C)CCCC2 ZINC000000000757

>  <Total Molweight>
165.239

>  <cLogP>
0.9311

>  <cLogS>
-2.084

>  <H-Acceptors>
3

>  <H-Donors>
1

>  <Total Surface Area>
138.74

>  <MMFF94 Energy>
31.419

> <Gold.Version>
5.8.1

> <Gold.Id.Protein>
ID|2FQT|mol2

> <Gold.PLP.Fitness>
35.1417

> <Gold.PLP.PLP>
-32.1417

> <Gold.PLP.part.hbond>
-1.0000

> <Gold.PLP.part.metal>
0.0000

> <Gold.PLP.part.buried>
-5.0661

> <Gold.PLP.part.nonpolar>
-26.6365

> <Gold.PLP.part.repulsive>
0.1893

> <Gold.PLP.ligand.clash>
0.0000

> <Gold.PLP.ligand.torsion>
0.0000

> <Gold.PLP.Chemscore.Hbond>
1.0000

> <Gold.PLP.Chemscore.CHOScore>
0.0000

> <Gold.PLP.Chemscore.Metal>
0.0000

> <Gold.Chemscore.Hbonds>
donor molecule, donor type, donor heavy atom, donor atom, acceptor molecule, acceptor atom, score
      L1  H     8    18       P1   954  1.00

> <Gold.PLP.Chemscore.Internal.Correction>
0.0000

> <Gold.Protein.RotatedTorsions>
[ 1849  621  620  617 ] final  109.89 input   60.00 | X-H torsion

> <Gold.Protein.ActiveResidues>
 HIS54   GLU57   HIS58   ALA61   PHE62   ILE76   ILE77   ASP78   ILE79   SER80  
 PRO81   GLN125  CYS126  GLY127  GLN128  HIS132  CO701  

> <Gold.Protein.RotatedAtoms>
  -17.9957   28.1394  -13.1196 H   0  0  0  0  0  0  0  0  0  0  0  0  # atno 1849 bound_to 621 
  -19.5151   28.7091  -13.2427 LP  0  0  0  0  0  0  0  0  0  0  0  0  # atno 2431 bound_to 621 
  -19.0771   27.3614  -14.0542 LP  0  0  0  0  0  0  0  0  0  0  0  0  # atno 2432 bound_to 621 

$$$$
Compound 5|DecoysActives|sdf|12|dock3
  -GOLD-   6112412123D 1   1.00000     0.00000

 34 35  0  0  0  0  0  0  0  0  1 V2000
  -23.0364   29.6557  -17.1924 Cl  0  0  0  0  0  0  0  0  0  0  0  0
  -23.9494   31.1173  -17.2956 C   0  0  0  0  0  0  0  0  0  0  0  0
  -25.1667   31.2378  -17.9644 C   0  0  0  0  0  0  0  0  0  0  0  0
  -23.4056   32.2414  -16.6671 C   0  0  0  0  0  0  0  0  0  0  0  0
  -25.9270   29.8554  -18.7562 S   0  0  0  0  0  0  0  0  0  0  0  0
  -25.8335   32.4764  -18.0003 C   0  0  0  0  0  0  0  0  0  0  0  0
  -24.0676   33.4730  -16.7044 C   0  0  0  0  0  0  0  0  0  0  0  0
  -24.9169   28.8576  -19.0308 O   0  0  0  0  0  0  0  0  0  0  0  0
  -26.8240   30.3239  -19.7845 O   0  0  0  0  0  0  0  0  0  0  0  0
  -26.8664   29.1804  -17.5404 N   0  0  0  0  0  0  0  0  0  0  0  0
  -25.2925   33.6178  -17.3782 C   0  0  0  0  0  0  0  0  0  0  0  0
  -26.0318   34.9580  -17.4061 C   0  0  2  0  0  0  0  0  0  0  0  0
  -27.1804   34.8709  -18.2373 O   0  0  0  0  0  0  0  0  0  0  0  0
  -25.2156   36.0258  -17.9463 N   0  0  0  0  0  0  0  0  0  0  0  0
  -26.4961   35.3806  -15.9945 C   0  0  0  0  0  0  0  0  0  0  0  0
  -24.7641   36.9844  -17.0756 C   0  0  0  0  0  0  0  0  0  0  0  0
  -24.7082   35.9409  -19.3040 C   0  0  0  0  0  0  0  0  0  0  0  0
  -25.4065   36.7311  -15.4591 S   0  0  0  0  0  0  0  0  0  0  0  0
  -23.9646   37.9330  -17.4078 N   0  0  0  0  0  0  0  0  0  0  0  0
  -23.5315   38.9073  -16.4189 C   0  0  0  0  0  0  0  0  0  0  0  0
  -22.4559   32.1691  -16.1396 H   0  0  0  0  0  0  0  0  0  0  0  0
  -26.7896   32.5546  -18.5200 H   0  0  0  0  0  0  0  0  0  0  0  0
  -23.6059   34.3224  -16.2023 H   0  0  0  0  0  0  0  0  0  0  0  0
  -27.6798   29.7703  -17.3629 H   0  0  0  0  0  0  0  0  0  0  0  0
  -26.2916   29.0068  -16.7142 H   0  0  0  0  0  0  0  0  0  0  0  0
  -27.6664   35.6893  -18.0384 H   0  0  0  0  0  0  0  0  0  0  0  0
  -27.5211   35.7675  -16.0126 H   0  0  0  0  0  0  0  0  0  0  0  0
  -26.4629   34.5633  -15.2667 H   0  0  0  0  0  0  0  0  0  0  0  0
  -25.2331   35.1832  -19.8953 H   0  0  0  0  0  0  0  0  0  0  0  0
  -23.6434   35.6852  -19.2991 H   0  0  0  0  0  0  0  0  0  0  0  0
  -24.8336   36.8985  -19.8201 H   0  0  0  0  0  0  0  0  0  0  0  0
  -22.9621   38.4389  -15.6094 H   0  0  0  0  0  0  0  0  0  0  0  0
  -24.3741   39.4744  -16.0099 H   0  0  0  0  0  0  0  0  0  0  0  0
  -22.8654   39.6282  -16.9037 H   0  0  0  0  0  0  0  0  0  0  0  0
  1  2  1  0  0  0  0
  2  3  2  0  0  0  0
  2  4  1  0  0  0  0
  3  5  1  0  0  0  0
  3  6  1  0  0  0  0
  4  7  2  0  0  0  0
  4 21  1  0  0  0  0
  5  8  2  0  0  0  0
  5  9  2  0  0  0  0
  5 10  1  0  0  0  0
  6 11  2  0  0  0  0
  6 22  1  0  0  0  0
  7 11  1  0  0  0  0
  7 23  1  0  0  0  0
 10 24  1  0  0  0  0
 10 25  1  0  0  0  0
 11 12  1  0  0  0  0
 12 13  1  0  0  0  0
 12 14  1  0  0  0  0
 12 15  1  0  0  0  0
 13 26  1  0  0  0  0
 14 16  1  0  0  0  0
 14 17  1  0  0  0  0
 15 18  1  0  0  0  0
 15 27  1  0  0  0  0
 15 28  1  0  0  0  0
 16 19  2  0  0  0  0
 16 18  1  0  0  0  0
 17 29  1  0  0  0  0
 17 30  1  0  0  0  0
 17 31  1  0  0  0  0
 19 20  1  0  0  0  0
 20 32  1  0  0  0  0
 20 33  1  0  0  0  0
 20 34  1  0  0  0  0
M  END
>  <Column 1>
C/N=C1\SC[C@](O)(c2ccc(Cl)c(S(N)(=O)=O)c2)N1C ZINC000000000785

>  <Total Molweight>
335.835

>  <cLogP>
0.8747

>  <cLogS>
-1.98

>  <H-Acceptors>
6

>  <H-Donors>
2

>  <Total Surface Area>
218.08

>  <MMFF94 Energy>
-129.84

> <Gold.Version>
5.8.1

> <Gold.Id.Protein>
ID|2FQT|mol2

> <Gold.PLP.Fitness>
50.0996

> <Gold.PLP.PLP>
-30.6258

> <Gold.PLP.part.hbond>
-1.7994

> <Gold.PLP.part.metal>
-1.8113

> <Gold.PLP.part.buried>
1.7837

> <Gold.PLP.part.nonpolar>
-28.6427

> <Gold.PLP.part.repulsive>
0.0900

> <Gold.PLP.ligand.clash>
0.0000

> <Gold.PLP.ligand.torsion>
1.0467

> <Gold.PLP.Chemscore.Hbond>
2.5520

> <Gold.PLP.Chemscore.CHOScore>
0.0000

> <Gold.PLP.Chemscore.Metal>
1.9951

> <Gold.Chemscore.Hbonds>
donor molecule, donor type, donor heavy atom, donor atom, acceptor molecule, acceptor atom, score
      L1  H    10    24       P1   437  0.93
      L1  H    10    25       P1   426  0.99
      P1  H   966  2177       L1     9  0.63
      P1  M  1222  1222       L1     9  1.00
      P1  M  1222  1222       L1    10  1.00

> <Gold.PLP.Chemscore.Internal.Correction>
1.9407

> <Gold.Protein.RotatedTorsions>
[ 1849  621  620  617 ] final  -31.15 input   60.00 | X-H torsion

> <Gold.Protein.ActiveResidues>
 HIS54   GLU57   HIS58   ALA61   PHE62   ILE76   ILE77   ASP78   ILE79   SER80  
 PRO81   GLN125  CYS126  GLY127  GLN128  HIS132  CO701  

> <Gold.Protein.RotatedAtoms>
  -19.6918   28.5006  -13.4501 H   0  0  0  0  0  0  0  0  0  0  0  0  # atno 1849 bound_to 621 
  -18.7464   27.2910  -13.9897 LP  0  0  0  0  0  0  0  0  0  0  0  0  # atno 2431 bound_to 621 
  -18.1379   28.4158  -12.9743 LP  0  0  0  0  0  0  0  0  0  0  0  0  # atno 2432 bound_to 621 

$$$$
Compound 6|DecoysActives|sdf|13|dock1
  -GOLD-   6112412123D 1   1.00000     0.00000

 15 16  0  0  0  0  0  0  0  0  1 V2000
  -25.1048   31.6727  -19.1423 N   0  0  0  0  0  0  0  0  0  0  0  0
  -24.6571   30.7485  -18.2760 C   0  0  0  0  0  0  0  0  0  0  0  0
  -26.1875   31.3806  -19.8947 C   0  0  0  0  0  0  0  0  0  0  0  0
  -23.5589   31.0467  -17.5138 N   0  0  0  0  0  0  0  0  0  0  0  0
  -25.3463   29.5554  -18.2199 C   0  0  0  0  0  0  0  0  0  0  0  0
  -26.9109   30.2543  -19.9027 N   0  0  0  0  0  0  0  0  0  0  0  0
  -25.2216   28.3997  -17.5014 N   0  0  0  0  0  0  0  0  0  0  0  0
  -26.4473   29.3433  -19.0301 C   0  0  0  0  0  0  0  0  0  0  0  0
  -26.2245   27.5564  -17.8942 C   0  0  0  0  0  0  0  0  0  0  0  0
  -26.9832   28.1003  -18.8191 N   0  0  0  0  0  0  0  0  0  0  0  0
  -26.5111   32.1588  -20.5793 H   0  0  0  0  0  0  0  0  0  0  0  0
  -23.0628   31.9177  -17.5607 H   0  0  0  0  0  0  0  0  0  0  0  0
  -23.2575   30.3217  -16.8764 H   0  0  0  0  0  0  0  0  0  0  0  0
  -24.5172   28.2026  -16.8061 H   0  0  0  0  0  0  0  0  0  0  0  0
  -26.3505   26.5670  -17.4741 H   0  0  0  0  0  0  0  0  0  0  0  0
  1  2  2  0  0  0  0
  1  3  1  0  0  0  0
  2  4  1  0  0  0  0
  2  5  1  0  0  0  0
  3  6  2  0  0  0  0
  3 11  1  0  0  0  0
  4 12  1  0  0  0  0
  4 13  1  0  0  0  0
  5  7  1  0  0  0  0
  5  8  2  0  0  0  0
  6  8  1  0  0  0  0
  7  9  1  0  0  0  0
  7 14  1  0  0  0  0
  8 10  1  0  0  0  0
  9 10  2  0  0  0  0
  9 15  1  0  0  0  0
M  END
>  <Column 1>
Nc1ncnc2nc[nH]c12 ZINC000000000882

>  <Total Molweight>
135.13

>  <cLogP>
-0.347

>  <cLogS>
-2.269

>  <H-Acceptors>
5

>  <H-Donors>
2

>  <Total Surface Area>
102.23

>  <MMFF94 Energy>
-83.259

> <Gold.Version>
5.8.1

> <Gold.Id.Protein>
ID|2FQT|mol2

> <Gold.PLP.Fitness>
33.1757

> <Gold.PLP.PLP>
-15.4405

> <Gold.PLP.part.hbond>
-2.0000

> <Gold.PLP.part.metal>
-2.0000

> <Gold.PLP.part.buried>
2.9838

> <Gold.PLP.part.nonpolar>
-15.3051

> <Gold.PLP.part.repulsive>
0.2060

> <Gold.PLP.ligand.clash>
0.0000

> <Gold.PLP.ligand.torsion>
0.0000

> <Gold.PLP.Chemscore.Hbond>
1.0000

> <Gold.PLP.Chemscore.CHOScore>
1.0000

> <Gold.PLP.Chemscore.Metal>
1.9559

> <Gold.Chemscore.Hbonds>
donor molecule, donor type, donor heavy atom, donor atom, acceptor molecule, acceptor atom, score
      P1  H   966  2177       L1     6  1.00
      L1  C     3    11       P1   954  1.00
      P1  M  1222  1222       L1     6  0.99
      P1  M  1222  1222       L1    10  0.97

> <Gold.PLP.Chemscore.Internal.Correction>
0.0000

> <Gold.Protein.RotatedTorsions>
[ 1849  621  620  617 ] final -105.27 input   60.00 | X-H torsion

> <Gold.Protein.ActiveResidues>
 HIS54   GLU57   HIS58   ALA61   PHE62   ILE76   ILE77   ASP78   ILE79   SER80  
 PRO81   GLN125  CYS126  GLY127  GLN128  HIS132  CO701  

> <Gold.Protein.RotatedAtoms>
  -19.4238   27.5669  -14.0246 H   0  0  0  0  0  0  0  0  0  0  0  0  # atno 1849 bound_to 621 
  -17.9634   27.8079  -13.3484 LP  0  0  0  0  0  0  0  0  0  0  0  0  # atno 2431 bound_to 621 
  -19.1907   28.8392  -13.0371 LP  0  0  0  0  0  0  0  0  0  0  0  0  # atno 2432 bound_to 621 

$$$$
Compound 7|DecoysActives|sdf|14|dock5
  -GOLD-   6112412123D 1   1.00000     0.00000

 33 33  0  0  0  0  0  0  0  0  1 V2000
  -25.1824   33.8330  -18.5538 N   0  0  0  0  0  0  0  0  0  0  0  0
  -25.4508   33.7645  -17.2560 C   0  0  0  0  0  0  0  0  0  0  0  0
  -25.5237   34.9490  -19.1853 C   0  0  0  0  0  0  0  0  0  0  0  0
  -26.0360   34.7516  -16.5897 N   0  0  0  0  0  0  0  0  0  0  0  0
  -25.1048   32.6144  -16.5674 N   0  0  0  0  0  0  0  0  0  0  0  0
  -26.1110   35.9702  -18.5743 N   0  0  0  0  0  0  0  0  0  0  0  0
  -25.2549   35.0532  -20.5394 N   0  0  0  0  0  0  0  0  0  0  0  0
  -26.3521   35.8426  -17.2757 C   0  0  0  0  0  0  0  0  0  0  0  0
  -24.9692   32.6895  -15.1297 C   0  0  0  0  0  0  0  0  0  0  0  0
  -25.3075   31.3379  -17.2155 C   0  0  0  0  0  0  0  0  0  0  0  0
  -24.7086   33.9016  -21.2222 C   0  0  0  0  0  0  0  0  0  0  0  0
  -25.9018   36.1069  -21.2889 C   0  0  0  0  0  0  0  0  0  0  0  0
  -26.9647   36.8908  -16.6090 N   0  0  0  0  0  0  0  0  0  0  0  0
  -27.2368   38.1047  -17.3466 C   0  0  0  0  0  0  0  0  0  0  0  0
  -27.7003   36.5952  -15.3994 C   0  0  0  0  0  0  0  0  0  0  0  0
  -24.2490   33.4605  -14.8330 H   0  0  0  0  0  0  0  0  0  0  0  0
  -25.9341   32.9025  -14.6563 H   0  0  0  0  0  0  0  0  0  0  0  0
  -24.6008   31.7434  -14.7181 H   0  0  0  0  0  0  0  0  0  0  0  0
  -24.7955   31.2920  -18.1834 H   0  0  0  0  0  0  0  0  0  0  0  0
  -26.3748   31.1415  -17.3676 H   0  0  0  0  0  0  0  0  0  0  0  0
  -24.9038   30.5193  -16.6097 H   0  0  0  0  0  0  0  0  0  0  0  0
  -23.7874   33.5495  -20.7439 H   0  0  0  0  0  0  0  0  0  0  0  0
  -25.4338   33.0805  -21.2460 H   0  0  0  0  0  0  0  0  0  0  0  0
  -24.4492   34.1438  -22.2586 H   0  0  0  0  0  0  0  0  0  0  0  0
  -25.7011   37.0924  -20.8534 H   0  0  0  0  0  0  0  0  0  0  0  0
  -26.9855   35.9496  -21.3294 H   0  0  0  0  0  0  0  0  0  0  0  0
  -25.5341   36.1407  -22.3203 H   0  0  0  0  0  0  0  0  0  0  0  0
  -26.3271   38.5111  -17.8035 H   0  0  0  0  0  0  0  0  0  0  0  0
  -27.9809   37.9276  -18.1311 H   0  0  0  0  0  0  0  0  0  0  0  0
  -27.6303   38.8862  -16.6873 H   0  0  0  0  0  0  0  0  0  0  0  0
  -27.0746   36.0772  -14.6636 H   0  0  0  0  0  0  0  0  0  0  0  0
  -28.5794   35.9785  -15.6168 H   0  0  0  0  0  0  0  0  0  0  0  0
  -28.0516   37.5143  -14.9177 H   0  0  0  0  0  0  0  0  0  0  0  0
  1  2  2  0  0  0  0
  1  3  1  0  0  0  0
  2  4  1  0  0  0  0
  2  5  1  0  0  0  0
  3  6  2  0  0  0  0
  3  7  1  0  0  0  0
  4  8  2  0  0  0  0
  5  9  1  0  0  0  0
  5 10  1  0  0  0  0
  6  8  1  0  0  0  0
  7 11  1  0  0  0  0
  7 12  1  0  0  0  0
  8 13  1  0  0  0  0
  9 16  1  0  0  0  0
  9 17  1  0  0  0  0
  9 18  1  0  0  0  0
 10 19  1  0  0  0  0
 10 20  1  0  0  0  0
 10 21  1  0  0  0  0
 11 22  1  0  0  0  0
 11 23  1  0  0  0  0
 11 24  1  0  0  0  0
 12 25  1  0  0  0  0
 12 26  1  0  0  0  0
 12 27  1  0  0  0  0
 13 14  1  0  0  0  0
 13 15  1  0  0  0  0
 14 28  1  0  0  0  0
 14 29  1  0  0  0  0
 14 30  1  0  0  0  0
 15 31  1  0  0  0  0
 15 32  1  0  0  0  0
 15 33  1  0  0  0  0
M  END
>  <Column 1>
CN(C)c1nc(N(C)C)nc(N(C)C)n1 ZINC000000000905

>  <Total Molweight>
210.284

>  <cLogP>
0.7704

>  <cLogS>
-1.91

>  <H-Acceptors>
6

>  <H-Donors>
0

>  <Total Surface Area>
174

>  <MMFF94 Energy>
-240.97

> <Gold.Version>
5.8.1

> <Gold.Id.Protein>
ID|2FQT|mol2

> <Gold.PLP.Fitness>
35.3211

> <Gold.PLP.PLP>
-36.2202

> <Gold.PLP.part.hbond>
0.0000

> <Gold.PLP.part.metal>
0.0000

> <Gold.PLP.part.buried>
-1.8707

> <Gold.PLP.part.nonpolar>
-34.2988

> <Gold.PLP.part.repulsive>
0.1120

> <Gold.PLP.ligand.clash>
0.0000

> <Gold.PLP.ligand.torsion>
0.5859

> <Gold.PLP.Chemscore.Hbond>
0.0000

> <Gold.PLP.Chemscore.CHOScore>
0.0000

> <Gold.PLP.Chemscore.Metal>
0.0000

> <Gold.PLP.Chemscore.Internal.Correction>
0.2726

> <Gold.Protein.RotatedTorsions>
[ 1849  621  620  617 ] final   51.74 input   60.00 | X-H torsion

> <Gold.Protein.ActiveResidues>
 HIS54   GLU57   HIS58   ALA61   PHE62   ILE76   ILE77   ASP78   ILE79   SER80  
 PRO81   GLN125  CYS126  GLY127  GLN128  HIS132  CO701  

> <Gold.Protein.RotatedAtoms>
  -18.6176   28.7626  -12.8900 H   0  0  0  0  0  0  0  0  0  0  0  0  # atno 1849 bound_to 621 
  -19.7395   28.0251  -13.8096 LP  0  0  0  0  0  0  0  0  0  0  0  0  # atno 2431 bound_to 621 
  -18.2264   27.4178  -13.7186 LP  0  0  0  0  0  0  0  0  0  0  0  0  # atno 2432 bound_to 621 

$$$$
Compound 8|DecoysActives|sdf|15|dock4
  -GOLD-   6112412123D 1   1.00000     0.00000

 18 18  0  0  0  0  0  0  0  0  1 V2000
  -25.5309   33.1418  -18.5322 N   0  0  0  0  0  0  0  0  0  0  0  0
  -25.4008   32.4715  -17.3609 C   0  0  0  0  0  0  0  0  0  0  0  0
  -25.9511   32.4415  -19.6125 C   0  0  0  0  0  0  0  0  0  0  0  0
  -24.9761   33.1710  -16.2432 N   0  0  0  0  0  0  0  0  0  0  0  0
  -25.7116   31.1045  -17.3430 C   0  0  0  0  0  0  0  0  0  0  0  0
  -26.2448   31.0941  -19.5593 C   0  0  0  0  0  0  0  0  0  0  0  0
  -25.2323   34.5879  -16.0796 C   0  0  0  0  0  0  0  0  0  0  0  0
  -24.5290   32.3934  -15.0996 C   0  0  0  0  0  0  0  0  0  0  0  0
  -26.1324   30.3865  -18.4207 N   0  0  0  0  0  0  0  0  0  0  0  0
  -26.0451   33.0060  -20.5327 H   0  0  0  0  0  0  0  0  0  0  0  0
  -25.6342   30.5185  -16.4350 H   0  0  0  0  0  0  0  0  0  0  0  0
  -26.5794   30.5486  -20.4334 H   0  0  0  0  0  0  0  0  0  0  0  0
  -24.7645   35.1679  -16.8826 H   0  0  0  0  0  0  0  0  0  0  0  0
  -24.8194   34.9666  -15.1383 H   0  0  0  0  0  0  0  0  0  0  0  0
  -26.3085   34.7909  -16.0697 H   0  0  0  0  0  0  0  0  0  0  0  0
  -23.7307   31.6955  -15.3778 H   0  0  0  0  0  0  0  0  0  0  0  0
  -25.3610   31.8310  -14.6614 H   0  0  0  0  0  0  0  0  0  0  0  0
  -24.1183   33.0377  -14.3145 H   0  0  0  0  0  0  0  0  0  0  0  0
  1  2  2  0  0  0  0
  1  3  1  0  0  0  0
  2  4  1  0  0  0  0
  2  5  1  0  0  0  0
  3  6  2  0  0  0  0
  3 10  1  0  0  0  0
  4  7  1  0  0  0  0
  4  8  1  0  0  0  0
  5  9  2  0  0  0  0
  5 11  1  0  0  0  0
  6  9  1  0  0  0  0
  6 12  1  0  0  0  0
  7 13  1  0  0  0  0
  7 14  1  0  0  0  0
  7 15  1  0  0  0  0
  8 16  1  0  0  0  0
  8 17  1  0  0  0  0
  8 18  1  0  0  0  0
M  END
>  <Column 1>
CN(C)c1cnccn1 ZINC000000000936

>  <Total Molweight>
123.158

>  <cLogP>
-0.0944

>  <cLogS>
-0.587

>  <H-Acceptors>
3

>  <H-Donors>
0

>  <Total Surface Area>
105.6

>  <MMFF94 Energy>
45.228

> <Gold.Version>
5.8.1

> <Gold.Id.Protein>
ID|2FQT|mol2

> <Gold.PLP.Fitness>
32.2148

> <Gold.PLP.PLP>
-21.3766

> <Gold.PLP.part.hbond>
0.0000

> <Gold.PLP.part.metal>
-0.9608

> <Gold.PLP.part.buried>
0.5080

> <Gold.PLP.part.nonpolar>
-20.1649

> <Gold.PLP.part.repulsive>
0.1007

> <Gold.PLP.ligand.clash>
0.0000

> <Gold.PLP.ligand.torsion>
0.2198

> <Gold.PLP.Chemscore.Hbond>
0.0000

> <Gold.PLP.Chemscore.CHOScore>
1.8656

> <Gold.PLP.Chemscore.Metal>
0.9399

> <Gold.Chemscore.Hbonds>
donor molecule, donor type, donor heavy atom, donor atom, acceptor molecule, acceptor atom, score
      L1  C     3    10       P1   954  0.97
      L1  C     5    11       P1   426  0.89
      P1  M  1222  1222       L1     9  0.94

> <Gold.PLP.Chemscore.Internal.Correction>
0.0415

> <Gold.Protein.RotatedTorsions>
[ 1849  621  620  617 ] final  107.46 input   60.00 | X-H torsion

> <Gold.Protein.ActiveResidues>
 HIS54   GLU57   HIS58   ALA61   PHE62   ILE76   ILE77   ASP78   ILE79   SER80  
 PRO81   GLN125  CYS126  GLY127  GLN128  HIS132  CO701  

> <Gold.Protein.RotatedAtoms>
  -18.0072   28.1722  -13.1002 H   0  0  0  0  0  0  0  0  0  0  0  0  # atno 1849 bound_to 621 
  -19.5412   28.6894  -13.2658 LP  0  0  0  0  0  0  0  0  0  0  0  0  # atno 2431 bound_to 621 
  -19.0395   27.3481  -14.0506 LP  0  0  0  0  0  0  0  0  0  0  0  0  # atno 2432 bound_to 621 

$$$$
Compound 9|DecoysActives|sdf|16|dock1
  -GOLD-   6112412123D 1   1.00000     0.00000

 34 36  0  0  0  0  0  0  0  0  1 V2000
  -27.2194   38.8500  -19.4946 N   0  0  0  0  0  0  0  0  0  0  0  0
  -27.4732   38.6929  -18.2289 C   0  0  0  0  0  0  0  0  0  0  0  0
  -26.5570   37.8303  -20.1236 C   0  0  0  0  0  0  0  0  0  0  0  0
  -27.0907   37.4948  -17.4523 C   0  0  0  0  0  0  0  0  0  0  0  0
  -28.2013   39.7945  -17.5020 C   0  0  0  0  0  0  0  0  0  0  0  0
  -26.1915   37.7568  -21.3854 N   0  0  0  0  0  0  0  0  0  0  0  0
  -26.1570   36.6517  -19.4507 N   0  0  0  0  0  0  0  0  0  0  0  0
  -26.4418   36.5028  -18.0813 C   0  0  0  0  0  0  0  0  0  0  0  0
  -27.3273   37.2115  -16.0163 C   0  0  0  0  0  0  0  0  0  0  0  0
  -25.5804   36.5498  -21.4671 C   0  0  0  0  0  0  0  0  0  0  0  0
  -25.5279   35.8416  -20.3434 N   0  0  0  0  0  0  0  0  0  0  0  0
  -26.1660   35.4559  -17.1789 N   0  0  0  0  0  0  0  0  0  0  0  0
  -26.6911   35.8166  -15.8428 C   0  0  0  0  0  0  0  0  0  0  0  0
  -25.4774   34.1597  -17.3911 C   0  0  0  0  0  0  0  0  0  0  0  0
  -26.1797   33.3547  -18.4959 C   0  0  0  0  0  0  0  0  0  0  0  0
  -25.3866   33.3790  -16.0707 C   0  0  0  0  0  0  0  0  0  0  0  0
  -24.0161   34.3580  -17.8710 C   0  0  0  0  0  0  0  0  0  0  0  0
  -28.4266   40.6197  -18.1838 H   0  0  0  0  0  0  0  0  0  0  0  0
  -27.5780   40.1732  -16.6870 H   0  0  0  0  0  0  0  0  0  0  0  0
  -29.1402   39.4097  -17.0945 H   0  0  0  0  0  0  0  0  0  0  0  0
  -28.3951   37.1861  -15.7778 H   0  0  0  0  0  0  0  0  0  0  0  0
  -26.8373   37.9472  -15.3709 H   0  0  0  0  0  0  0  0  0  0  0  0
  -25.1538   36.1680  -22.3861 H   0  0  0  0  0  0  0  0  0  0  0  0
  -25.8863   35.8659  -15.1016 H   0  0  0  0  0  0  0  0  0  0  0  0
  -27.4510   35.1014  -15.5103 H   0  0  0  0  0  0  0  0  0  0  0  0
  -25.6429   32.4224  -18.7065 H   0  0  0  0  0  0  0  0  0  0  0  0
  -27.2028   33.0778  -18.2452 H   0  0  0  0  0  0  0  0  0  0  0  0
  -26.2254   33.9308  -19.4278 H   0  0  0  0  0  0  0  0  0  0  0  0
  -24.8764   33.9720  -15.3025 H   0  0  0  0  0  0  0  0  0  0  0  0
  -24.8235   32.4474  -16.2012 H   0  0  0  0  0  0  0  0  0  0  0  0
  -26.3586   33.1036  -15.6635 H   0  0  0  0  0  0  0  0  0  0  0  0
  -23.5182   33.3926  -18.0243 H   0  0  0  0  0  0  0  0  0  0  0  0
  -23.4184   34.9120  -17.1389 H   0  0  0  0  0  0  0  0  0  0  0  0
  -23.9698   34.8952  -18.8248 H   0  0  0  0  0  0  0  0  0  0  0  0
  1  2  2  0  0  0  0
  1  3  1  0  0  0  0
  2  4  1  0  0  0  0
  2  5  1  0  0  0  0
  3  6  2  0  0  0  0
  3  7  1  0  0  0  0
  4  8  2  0  0  0  0
  4  9  1  0  0  0  0
  5 18  1  0  0  0  0
  5 19  1  0  0  0  0
  5 20  1  0  0  0  0
  6 10  1  0  0  0  0
  7 11  1  0  0  0  0
  7  8  1  0  0  0  0
  8 12  1  0  0  0  0
  9 13  1  0  0  0  0
  9 21  1  0  0  0  0
  9 22  1  0  0  0  0
 10 11  2  0  0  0  0
 10 23  1  0  0  0  0
 12 14  1  0  0  0  0
 12 13  1  0  0  0  0
 13 24  1  0  0  0  0
 13 25  1  0  0  0  0
 14 15  1  0  0  0  0
 14 16  1  0  0  0  0
 14 17  1  0  0  0  0
 15 26  1  0  0  0  0
 15 27  1  0  0  0  0
 15 28  1  0  0  0  0
 16 29  1  0  0  0  0
 16 30  1  0  0  0  0
 16 31  1  0  0  0  0
 17 32  1  0  0  0  0
 17 33  1  0  0  0  0
 17 34  1  0  0  0  0
M  END
>  <Column 1>
Cc1nc2ncnn2c2c1CCN2C(C)(C)C ZINC000000001071

>  <Total Molweight>
231.302

>  <cLogP>
1.1886

>  <cLogS>
-1.397

>  <H-Acceptors>
5

>  <H-Donors>
0

>  <Total Surface Area>
178.56

>  <MMFF94 Energy>
113.62

> <Gold.Version>
5.8.1

> <Gold.Id.Protein>
ID|2FQT|mol2

> <Gold.PLP.Fitness>
37.9742

> <Gold.PLP.PLP>
-37.9752

> <Gold.PLP.part.hbond>
0.0000

> <Gold.PLP.part.metal>
0.0000

> <Gold.PLP.part.buried>
-4.8355

> <Gold.PLP.part.nonpolar>
-33.9666

> <Gold.PLP.part.repulsive>
0.4812

> <Gold.PLP.ligand.clash>
0.0000

> <Gold.PLP.ligand.torsion>
0.0118

> <Gold.PLP.Chemscore.Hbond>
0.0000

> <Gold.PLP.Chemscore.CHOScore>
0.0000

> <Gold.PLP.Chemscore.Metal>
0.0000

> <Gold.PLP.Chemscore.Internal.Correction>
0.0226

> <Gold.Protein.RotatedTorsions>
[ 1849  621  620  617 ] final   25.19 input   60.00 | X-H torsion

> <Gold.Protein.ActiveResidues>
 HIS54   GLU57   HIS58   ALA61   PHE62   ILE76   ILE77   ASP78   ILE79   SER80  
 PRO81   GLN125  CYS126  GLY127  GLN128  HIS132  CO701  

> <Gold.Protein.RotatedAtoms>
  -19.0312   28.8451  -12.9745 H   0  0  0  0  0  0  0  0  0  0  0  0  # atno 1849 bound_to 621 
  -19.5464   27.6812  -13.9884 LP  0  0  0  0  0  0  0  0  0  0  0  0  # atno 2431 bound_to 621 
  -18.0031   27.6786  -13.4546 LP  0  0  0  0  0  0  0  0  0  0  0  0  # atno 2432 bound_to 621 

$$$$
Compound 10|DecoysActives|sdf|17|dock2
  -GOLD-   6112412123D 1   1.00000     0.00000

 20 21  0  0  0  0  0  0  0  0  1 V2000
  -25.8723   31.8011  -18.5492 N   0  0  0  0  0  0  0  0  0  0  0  0
  -25.3002   31.3216  -17.3905 C   0  0  0  0  0  0  0  0  0  0  0  0
  -26.2007   33.0586  -18.6034 C   0  0  0  0  0  0  0  0  0  0  0  0
  -25.0522   32.0293  -16.3185 N   0  0  0  0  0  0  0  0  0  0  0  0
  -24.9787   30.0127  -17.3860 N   0  0  0  0  0  0  0  0  0  0  0  0
  -25.9580   33.8630  -17.4848 N   0  0  0  0  0  0  0  0  0  0  0  0
  -26.7724   33.6224  -19.7090 N   0  0  0  0  0  0  0  0  0  0  0  0
  -25.3895   33.3428  -16.3606 C   0  0  0  0  0  0  0  0  0  0  0  0
  -26.2529   35.1828  -17.4149 N   0  0  0  0  0  0  0  0  0  0  0  0
  -25.3022   34.3968  -15.4824 C   0  0  0  0  0  0  0  0  0  0  0  0
  -25.8468   35.5099  -16.1771 C   0  0  0  0  0  0  0  0  0  0  0  0
  -25.9946   36.9017  -15.6876 C   0  0  0  0  0  0  0  0  0  0  0  0
  -25.1625   29.4526  -18.2026 H   0  0  0  0  0  0  0  0  0  0  0  0
  -24.5575   29.6129  -16.5625 H   0  0  0  0  0  0  0  0  0  0  0  0
  -26.9571   33.0626  -20.5276 H   0  0  0  0  0  0  0  0  0  0  0  0
  -27.0082   34.6096  -19.6958 H   0  0  0  0  0  0  0  0  0  0  0  0
  -24.9009   34.3649  -14.4801 H   0  0  0  0  0  0  0  0  0  0  0  0
  -25.6176   37.0025  -14.6648 H   0  0  0  0  0  0  0  0  0  0  0  0
  -25.4349   37.5940  -16.3249 H   0  0  0  0  0  0  0  0  0  0  0  0
  -27.0479   37.2000  -15.6916 H   0  0  0  0  0  0  0  0  0  0  0  0
  1  2  1  0  0  0  0
  1  3  2  0  0  0  0
  2  4  2  0  0  0  0
  2  5  1  0  0  0  0
  3  6  1  0  0  0  0
  3  7  1  0  0  0  0
  4  8  1  0  0  0  0
  5 13  1  0  0  0  0
  5 14  1  0  0  0  0
  6  9  1  0  0  0  0
  6  8  1  0  0  0  0
  7 15  1  0  0  0  0
  7 16  1  0  0  0  0
  8 10  2  0  0  0  0
  9 11  2  0  0  0  0
 10 11  1  0  0  0  0
 10 17  1  0  0  0  0
 11 12  1  0  0  0  0
 12 18  1  0  0  0  0
 12 19  1  0  0  0  0
 12 20  1  0  0  0  0
M  END
>  <Column 1>
Cc1cc2nc(N)nc(N)n2n1 ZINC000000001242

>  <Total Molweight>
164.172

>  <cLogP>
-0.7791

>  <cLogS>
-2.877

>  <H-Acceptors>
6

>  <H-Donors>
2

>  <Total Surface Area>
124.09

>  <MMFF94 Energy>
-29.084

> <Gold.Version>
5.8.1

> <Gold.Id.Protein>
ID|2FQT|mol2

> <Gold.PLP.Fitness>
30.9631

> <Gold.PLP.PLP>
-29.5711

> <Gold.PLP.part.hbond>
-0.8801

> <Gold.PLP.part.metal>
0.0000

> <Gold.PLP.part.buried>
-5.5122

> <Gold.PLP.part.nonpolar>
-24.1147

> <Gold.PLP.part.repulsive>
0.3272

> <Gold.PLP.ligand.clash>
0.0000

> <Gold.PLP.ligand.torsion>
0.0000

> <Gold.PLP.Chemscore.Hbond>
0.4640

> <Gold.PLP.Chemscore.CHOScore>
0.0000

> <Gold.PLP.Chemscore.Metal>
0.0000

> <Gold.Chemscore.Hbonds>
donor molecule, donor type, donor heavy atom, donor atom, acceptor molecule, acceptor atom, score
      L1  H     7    15       P1   954  0.46

> <Gold.PLP.Chemscore.Internal.Correction>
0.0000

> <Gold.Protein.RotatedTorsions>
[ 1849  621  620  617 ] final  168.72 input   60.00 | X-H torsion

> <Gold.Protein.ActiveResidues>
 HIS54   GLU57   HIS58   ALA61   PHE62   ILE76   ILE77   ASP78   ILE79   SER80  
 PRO81   GLN125  CYS126  GLY127  GLN128  HIS132  CO701  

> <Gold.Protein.RotatedAtoms>
  -18.1983   27.4445  -13.6868 H   0  0  0  0  0  0  0  0  0  0  0  0  # atno 1849 bound_to 621 
  -18.6618   28.7863  -12.8913 LP  0  0  0  0  0  0  0  0  0  0  0  0  # atno 2431 bound_to 621 
  -19.7264   27.9840  -13.8345 LP  0  0  0  0  0  0  0  0  0  0  0  0  # atno 2432 bound_to 621 

$$$$
Compound 11|DecoysActives|sdf|18|dock14
  -GOLD-   6112412123D 1   1.00000     0.00000

 42 44  0  0  0  0  0  0  0  0  1 V2000
  -24.1305   41.1379  -17.7797 O   0  0  0  0  0  0  0  0  0  0  0  0
  -24.5331   40.0473  -17.3639 C   0  0  0  0  0  0  0  0  0  0  0  0
  -23.6511   39.1385  -16.7425 N   0  0  0  0  0  0  0  0  0  0  0  0
  -25.8672   39.6583  -17.4843 N   0  0  0  0  0  0  0  0  0  0  0  0
  -23.9985   37.8827  -16.2374 C   0  0  0  0  0  0  0  0  0  0  0  0
  -22.2697   39.5632  -16.6278 C   0  0  0  0  0  0  0  0  0  0  0  0
  -26.2564   38.4322  -17.0024 C   0  0  0  0  0  0  0  0  0  0  0  0
  -26.8397   40.5347  -18.1110 C   0  0  0  0  0  0  0  0  0  0  0  0
  -23.2133   37.1077  -15.6999 O   0  0  0  0  0  0  0  0  0  0  0  0
  -25.3769   37.5804  -16.4081 C   0  0  0  0  0  0  0  0  0  0  0  0
  -27.5126   37.9153  -17.0458 N   0  0  0  0  0  0  0  0  0  0  0  0
  -26.1176   36.4785  -16.0633 N   0  0  0  0  0  0  0  0  0  0  0  0
  -27.4029   36.7327  -16.4715 C   0  0  0  0  0  0  0  0  0  0  0  0
  -25.5893   35.2946  -15.3938 C   0  0  0  0  0  0  0  0  0  0  0  0
  -25.5320   34.0633  -16.2590 C   0  0  0  0  0  0  0  0  0  0  0  0
  -25.9848   34.0932  -17.5791 C   0  0  0  0  0  0  0  0  0  0  0  0
  -25.0489   32.8546  -15.7542 C   0  0  0  0  0  0  0  0  0  0  0  0
  -25.9495   32.9368  -18.3718 C   0  0  0  0  0  0  0  0  0  0  0  0
  -25.0197   31.7063  -16.5588 C   0  0  0  0  0  0  0  0  0  0  0  0
  -25.4677   31.7074  -17.8907 C   0  0  0  0  0  0  0  0  0  0  0  0
  -25.4378   30.5646  -18.6816 N   0  0  0  0  0  0  0  0  0  0  0  0
  -25.1576   29.2556  -18.1055 C   0  0  0  0  0  0  0  0  0  0  0  0
  -25.6792   30.6341  -20.1172 C   0  0  0  0  0  0  0  0  0  0  0  0
  -22.2307   40.4944  -16.0534 H   0  0  0  0  0  0  0  0  0  0  0  0
  -21.8749   39.7620  -17.6296 H   0  0  0  0  0  0  0  0  0  0  0  0
  -21.6386   38.8172  -16.1387 H   0  0  0  0  0  0  0  0  0  0  0  0
  -27.6303   40.7648  -17.3898 H   0  0  0  0  0  0  0  0  0  0  0  0
  -27.2716   40.0265  -18.9789 H   0  0  0  0  0  0  0  0  0  0  0  0
  -26.3882   41.4724  -18.4447 H   0  0  0  0  0  0  0  0  0  0  0  0
  -28.2205   36.0355  -16.3322 H   0  0  0  0  0  0  0  0  0  0  0  0
  -24.5847   35.5488  -15.0353 H   0  0  0  0  0  0  0  0  0  0  0  0
  -26.2235   35.1096  -14.5186 H   0  0  0  0  0  0  0  0  0  0  0  0
  -26.3745   35.0128  -18.0109 H   0  0  0  0  0  0  0  0  0  0  0  0
  -24.6914   32.7852  -14.7288 H   0  0  0  0  0  0  0  0  0  0  0  0
  -26.3167   33.0281  -19.3900 H   0  0  0  0  0  0  0  0  0  0  0  0
  -24.6321   30.7986  -16.1050 H   0  0  0  0  0  0  0  0  0  0  0  0
  -24.1631   29.2365  -17.6465 H   0  0  0  0  0  0  0  0  0  0  0  0
  -25.1725   28.4630  -18.8616 H   0  0  0  0  0  0  0  0  0  0  0  0
  -25.9103   28.9906  -17.3550 H   0  0  0  0  0  0  0  0  0  0  0  0
  -26.6806   31.0264  -20.3259 H   0  0  0  0  0  0  0  0  0  0  0  0
  -25.6209   29.6483  -20.5912 H   0  0  0  0  0  0  0  0  0  0  0  0
  -24.9311   31.2661  -20.6083 H   0  0  0  0  0  0  0  0  0  0  0  0
  1  2  2  0  0  0  0
  2  3  1  0  0  0  0
  2  4  1  0  0  0  0
  3  5  1  0  0  0  0
  3  6  1  0  0  0  0
  4  7  1  0  0  0  0
  4  8  1  0  0  0  0
  5  9  2  0  0  0  0
  5 10  1  0  0  0  0
  6 24  1  0  0  0  0
  6 25  1  0  0  0  0
  6 26  1  0  0  0  0
  7 11  1  0  0  0  0
  7 10  2  0  0  0  0
  8 27  1  0  0  0  0
  8 28  1  0  0  0  0
  8 29  1  0  0  0  0
 10 12  1  0  0  0  0
 11 13  2  0  0  0  0
 12 14  1  0  0  0  0
 12 13  1  0  0  0  0
 13 30  1  0  0  0  0
 14 15  1  0  0  0  0
 14 31  1  0  0  0  0
 14 32  1  0  0  0  0
 15 16  2  0  0  0  0
 15 17  1  0  0  0  0
 16 18  1  0  0  0  0
 16 33  1  0  0  0  0
 17 19  2  0  0  0  0
 17 34  1  0  0  0  0
 18 20  2  0  0  0  0
 18 35  1  0  0  0  0
 19 20  1  0  0  0  0
 19 36  1  0  0  0  0
 20 21  1  0  0  0  0
 21 22  1  0  0  0  0
 21 23  1  0  0  0  0
 22 37  1  0  0  0  0
 22 38  1  0  0  0  0
 22 39  1  0  0  0  0
 23 40  1  0  0  0  0
 23 41  1  0  0  0  0
 23 42  1  0  0  0  0
M  END
>  <Column 1>
CN(C)c1ccc(Cn2cnc3c2c(=O)n(C)c(=O)n3C)cc1 ZINC000000001301

>  <Total Molweight>
313.36

>  <cLogP>
1.0755

>  <cLogS>
-1.97

>  <H-Acceptors>
7

>  <H-Donors>
0

>  <Total Surface Area>
236.68

>  <MMFF94 Energy>
-92.158

> <Gold.Version>
5.8.1

> <Gold.Id.Protein>
ID|2FQT|mol2

> <Gold.PLP.Fitness>
58.3458

> <Gold.PLP.PLP>
-58.6409

> <Gold.PLP.part.hbond>
-0.6174

> <Gold.PLP.part.metal>
0.0000

> <Gold.PLP.part.buried>
-6.4518

> <Gold.PLP.part.nonpolar>
-52.9479

> <Gold.PLP.part.repulsive>
0.1293

> <Gold.PLP.ligand.clash>
0.0000

> <Gold.PLP.ligand.torsion>
0.1484

> <Gold.PLP.Chemscore.Hbond>
0.0000

> <Gold.PLP.Chemscore.CHOScore>
0.0000

> <Gold.PLP.Chemscore.Metal>
0.0000

> <Gold.PLP.Chemscore.Internal.Correction>
0.0017

> <Gold.Protein.RotatedTorsions>
[ 1849  621  620  617 ] final   34.30 input   60.00 | X-H torsion

> <Gold.Protein.ActiveResidues>
 HIS54   GLU57   HIS58   ALA61   PHE62   ILE76   ILE77   ASP78   ILE79   SER80  
 PRO81   GLN125  CYS126  GLY127  GLN128  HIS132  CO701  

> <Gold.Protein.RotatedAtoms>
  -18.8889   28.8351  -12.9323 H   0  0  0  0  0  0  0  0  0  0  0  0  # atno 1849 bound_to 621 
  -19.6318   27.7934  -13.9378 LP  0  0  0  0  0  0  0  0  0  0  0  0  # atno 2431 bound_to 621 
  -18.0610   27.5765  -13.5477 LP  0  0  0  0  0  0  0  0  0  0  0  0  # atno 2432 bound_to 621 

$$$$
Compound 12|DecoysActives|sdf|19|dock1
  -GOLD-   6112412123D 1   1.00000     0.00000

 34 35  0  0  0  0  0  0  0  0  1 V2000
  -25.8905   32.1421  -19.4027 O   0  0  0  0  0  0  0  0  0  0  0  0
  -25.6926   32.5243  -18.2489 C   0  0  0  0  0  0  0  0  0  0  0  0
  -25.2084   31.6827  -17.2552 N   0  0  0  0  0  0  0  0  0  0  0  0
  -25.9819   33.9525  -17.8482 C   0  0  0  0  0  0  0  0  0  0  0  0
  -24.9918   32.0683  -15.9618 N   0  0  0  0  0  0  0  0  0  0  0  0
  -24.8990   30.2941  -17.5487 C   0  0  0  0  0  0  0  0  0  0  0  0
  -26.5258   34.8491  -18.7717 O   0  0  0  0  0  0  0  0  0  0  0  0
  -25.8301   34.3401  -16.5661 C   0  0  0  0  0  0  0  0  0  0  0  0
  -25.2806   33.2903  -15.6650 C   0  0  0  0  0  0  0  0  0  0  0  0
  -25.6837   35.1587  -19.8845 C   0  0  0  0  0  0  0  0  0  0  0  0
  -26.0900   35.5948  -15.9967 N   0  0  0  0  0  0  0  0  0  0  0  0
  -26.3241   36.3008  -20.6547 C   0  0  0  0  0  0  0  0  0  0  0  0
  -27.4016   36.2692  -16.0917 C   0  0  0  0  0  0  0  0  0  0  0  0
  -25.0470   36.5028  -15.4813 C   0  0  0  0  0  0  0  0  0  0  0  0
  -27.2606   37.5585  -16.9222 C   0  0  0  0  0  0  0  0  0  0  0  0
  -24.9788   37.7672  -16.3480 C   0  0  0  0  0  0  0  0  0  0  0  0
  -26.2552   38.4332  -16.3821 O   0  0  0  0  0  0  0  0  0  0  0  0
  -23.8467   30.1114  -17.3112 H   0  0  0  0  0  0  0  0  0  0  0  0
  -25.0744   30.0482  -18.5988 H   0  0  0  0  0  0  0  0  0  0  0  0
  -25.5298   29.6554  -16.9231 H   0  0  0  0  0  0  0  0  0  0  0  0
  -25.0823   33.6129  -14.6298 H   0  0  0  0  0  0  0  0  0  0  0  0
  -25.6149   34.2901  -20.5463 H   0  0  0  0  0  0  0  0  0  0  0  0
  -24.6829   35.4632  -19.5556 H   0  0  0  0  0  0  0  0  0  0  0  0
  -25.7316   36.5549  -21.5381 H   0  0  0  0  0  0  0  0  0  0  0  0
  -27.3371   36.0319  -20.9728 H   0  0  0  0  0  0  0  0  0  0  0  0
  -26.4142   37.1912  -20.0244 H   0  0  0  0  0  0  0  0  0  0  0  0
  -27.7378   36.5159  -15.0777 H   0  0  0  0  0  0  0  0  0  0  0  0
  -28.1613   35.6295  -16.5527 H   0  0  0  0  0  0  0  0  0  0  0  0
  -25.3282   36.7860  -14.4590 H   0  0  0  0  0  0  0  0  0  0  0  0
  -24.0702   36.0176  -15.4085 H   0  0  0  0  0  0  0  0  0  0  0  0
  -28.2091   38.1049  -16.9219 H   0  0  0  0  0  0  0  0  0  0  0  0
  -27.0064   37.3281  -17.9638 H   0  0  0  0  0  0  0  0  0  0  0  0
  -24.2527   38.4692  -15.9263 H   0  0  0  0  0  0  0  0  0  0  0  0
  -24.6697   37.5375  -17.3741 H   0  0  0  0  0  0  0  0  0  0  0  0
  1  2  2  0  0  0  0
  2  3  1  0  0  0  0
  2  4  1  0  0  0  0
  3  5  1  0  0  0  0
  3  6  1  0  0  0  0
  4  7  1  0  0  0  0
  4  8  2  0  0  0  0
  5  9  2  0  0  0  0
  6 18  1  0  0  0  0
  6 19  1  0  0  0  0
  6 20  1  0  0  0  0
  7 10  1  0  0  0  0
  8 11  1  0  0  0  0
  8  9  1  0  0  0  0
  9 21  1  0  0  0  0
 10 12  1  0  0  0  0
 10 22  1  0  0  0  0
 10 23  1  0  0  0  0
 11 13  1  0  0  0  0
 11 14  1  0  0  0  0
 12 24  1  0  0  0  0
 12 25  1  0  0  0  0
 12 26  1  0  0  0  0
 13 15  1  0  0  0  0
 13 27  1  0  0  0  0
 13 28  1  0  0  0  0
 14 16  1  0  0  0  0
 14 29  1  0  0  0  0
 14 30  1  0  0  0  0
 15 17  1  0  0  0  0
 15 31  1  0  0  0  0
 15 32  1  0  0  0  0
 16 17  1  0  0  0  0
 16 33  1  0  0  0  0
 16 34  1  0  0  0  0
M  END
>  <Column 1>
CCOc1c(N2CCOCC2)cnn(C)c1=O ZINC000000001349

>  <Total Molweight>
239.274

>  <cLogP>
-0.3021

>  <cLogS>
-0.643

>  <H-Acceptors>
6

>  <H-Donors>
0

>  <Total Surface Area>
185.85

>  <MMFF94 Energy>
164.56

> <Gold.Version>
5.8.1

> <Gold.Id.Protein>
ID|2FQT|mol2

> <Gold.PLP.Fitness>
41.8754

> <Gold.PLP.PLP>
-44.1522

> <Gold.PLP.part.hbond>
0.0000

> <Gold.PLP.part.metal>
0.0000

> <Gold.PLP.part.buried>
-5.0712

> <Gold.PLP.part.nonpolar>
-40.2560

> <Gold.PLP.part.repulsive>
0.3061

> <Gold.PLP.ligand.clash>
0.0000

> <Gold.PLP.ligand.torsion>
1.1721

> <Gold.PLP.Chemscore.Hbond>
0.0000

> <Gold.PLP.Chemscore.CHOScore>
0.0000

> <Gold.PLP.Chemscore.Metal>
0.0000

> <Gold.PLP.Chemscore.Internal.Correction>
0.0674

> <Gold.Protein.RotatedTorsions>
[ 1849  621  620  617 ] final   39.29 input   60.00 | X-H torsion

> <Gold.Protein.ActiveResidues>
 HIS54   GLU57   HIS58   ALA61   PHE62   ILE76   ILE77   ASP78   ILE79   SER80  
 PRO81   GLN125  CYS126  GLY127  GLN128  HIS132  CO701  

> <Gold.Protein.RotatedAtoms>
  -18.8104   28.8214  -12.9149 H   0  0  0  0  0  0  0  0  0  0  0  0  # atno 1849 bound_to 621 
  -19.6704   27.8580  -13.9051 LP  0  0  0  0  0  0  0  0  0  0  0  0  # atno 2431 bound_to 621 
  -18.1014   27.5257  -13.5980 LP  0  0  0  0  0  0  0  0  0  0  0  0  # atno 2432 bound_to 621 

$$$$
Compound 13|DecoysActives|sdf|20|dock3
  -GOLD-   6112412123D 1   1.00000     0.00000

 27 29  0  0  0  0  0  0  0  0  1 V2000
  -25.5383   34.6726  -15.6814 O   0  0  0  0  0  0  0  0  0  0  0  0
  -25.5701   33.9394  -16.8386 C   0  0  0  0  0  0  0  0  0  0  0  0
  -26.4511   35.6699  -15.8078 C   0  0  0  0  0  0  0  0  0  0  0  0
  -24.6568   32.8048  -16.9502 C   0  0  0  0  0  0  0  0  0  0  0  0
  -26.5009   34.4931  -17.6994 C   0  0  0  0  0  0  0  0  0  0  0  0
  -27.0706   35.6037  -17.0322 C   0  0  0  0  0  0  0  0  0  0  0  0
  -23.9379   32.5729  -15.8238 N   0  0  0  0  0  0  0  0  0  0  0  0
  -24.5111   31.9935  -18.0838 C   0  0  0  0  0  0  0  0  0  0  0  0
  -23.0827   31.5092  -15.8620 C   0  0  0  0  0  0  0  0  0  0  0  0
  -23.6445   30.9559  -18.0911 N   0  0  0  0  0  0  0  0  0  0  0  0
  -25.1504   32.2158  -19.2860 N   0  0  0  0  0  0  0  0  0  0  0  0
  -22.9297   30.6977  -16.9905 C   0  0  0  0  0  0  0  0  0  0  0  0
  -22.2763   31.1383  -14.7919 C   0  0  0  0  0  0  0  0  0  0  0  0
  -22.0940   29.6655  -17.0353 N   0  0  0  0  0  0  0  0  0  0  0  0
  -21.4339   30.0948  -14.8166 N   0  0  0  0  0  0  0  0  0  0  0  0
  -22.3502   31.8188  -13.5824 N   0  0  0  0  0  0  0  0  0  0  0  0
  -21.3782   29.4006  -15.9490 C   0  0  0  0  0  0  0  0  0  0  0  0
  -20.5248   28.3392  -15.9979 N   0  0  0  0  0  0  0  0  0  0  0  0
  -26.5406   36.3336  -14.9585 H   0  0  0  0  0  0  0  0  0  0  0  0
  -26.7319   34.1293  -18.6912 H   0  0  0  0  0  0  0  0  0  0  0  0
  -27.8348   36.2743  -17.3994 H   0  0  0  0  0  0  0  0  0  0  0  0
  -25.7670   33.0155  -19.3623 H   0  0  0  0  0  0  0  0  0  0  0  0
  -25.3229   31.3918  -19.8451 H   0  0  0  0  0  0  0  0  0  0  0  0
  -23.0067   32.5850  -13.5145 H   0  0  0  0  0  0  0  0  0  0  0  0
  -21.5214   31.7950  -13.0066 H   0  0  0  0  0  0  0  0  0  0  0  0
  -20.4772   27.8086  -16.8506 H   0  0  0  0  0  0  0  0  0  0  0  0
  -19.9895   28.1190  -15.1765 H   0  0  0  0  0  0  0  0  0  0  0  0
  1  2  1  0  0  0  0
  1  3  1  0  0  0  0
  2  4  1  0  0  0  0
  2  5  2  0  0  0  0
  3  6  2  0  0  0  0
  3 19  1  0  0  0  0
  4  7  2  0  0  0  0
  4  8  1  0  0  0  0
  5  6  1  0  0  0  0
  5 20  1  0  0  0  0
  6 21  1  0  0  0  0
  7  9  1  0  0  0  0
  8 10  2  0  0  0  0
  8 11  1  0  0  0  0
  9 12  1  0  0  0  0
  9 13  2  0  0  0  0
 10 12  1  0  0  0  0
 11 22  1  0  0  0  0
 11 23  1  0  0  0  0
 12 14  2  0  0  0  0
 13 15  1  0  0  0  0
 13 16  1  0  0  0  0
 14 17  1  0  0  0  0
 15 17  2  0  0  0  0
 16 24  1  0  0  0  0
 16 25  1  0  0  0  0
 17 18  1  0  0  0  0
 18 26  1  0  0  0  0
 18 27  1  0  0  0  0
M  END
>  <Column 1>
Nc1nc(N)c2nc(-c3ccco3)c(N)nc2n1 ZINC000000001499

>  <Total Molweight>
243.229

>  <cLogP>
-0.1668

>  <cLogS>
-3.94

>  <H-Acceptors>
8

>  <H-Donors>
3

>  <Total Surface Area>
177.91

>  <MMFF94 Energy>
-21.97

> <Gold.Version>
5.8.1

> <Gold.Id.Protein>
ID|2FQT|mol2

> <Gold.PLP.Fitness>
36.8893

> <Gold.PLP.PLP>
-29.5469

> <Gold.PLP.part.hbond>
-1.5576

> <Gold.PLP.part.metal>
0.0000

> <Gold.PLP.part.buried>
-5.9766

> <Gold.PLP.part.nonpolar>
-23.8303

> <Gold.PLP.part.repulsive>
0.6024

> <Gold.PLP.ligand.clash>
0.0000

> <Gold.PLP.ligand.torsion>
0.0045

> <Gold.PLP.Chemscore.Hbond>
1.4503

> <Gold.PLP.Chemscore.CHOScore>
1.0000

> <Gold.PLP.Chemscore.Metal>
0.0000

> <Gold.Chemscore.Hbonds>
donor molecule, donor type, donor heavy atom, donor atom, acceptor molecule, acceptor atom, score
      L1  H    16    25       P1   611  0.78
      L1  H    18    27       P1   621  0.67
      L1  C     3    19       P1   431  1.00

> <Gold.PLP.Chemscore.Internal.Correction>
0.0007

> <Gold.Protein.RotatedTorsions>
[ 1849  621  620  617 ] final   67.41 input   60.00 | X-H torsion

> <Gold.Protein.ActiveResidues>
 HIS54   GLU57   HIS58   ALA61   PHE62   ILE76   ILE77   ASP78   ILE79   SER80  
 PRO81   GLN125  CYS126  GLY127  GLN128  HIS132  CO701  

> <Gold.Protein.RotatedAtoms>
  -18.3924   28.6428  -12.8974 H   0  0  0  0  0  0  0  0  0  0  0  0  # atno 1849 bound_to 621 
  -19.7675   28.2375  -13.6675 LP  0  0  0  0  0  0  0  0  0  0  0  0  # atno 2431 bound_to 621 
  -18.4253   27.3261  -13.8532 LP  0  0  0  0  0  0  0  0  0  0  0  0  # atno 2432 bound_to 621 

$$$$
Compound 14|DecoysActives|sdf|21|dock2
  -GOLD-   6112412123D 1   1.00000     0.00000

 30 31  0  0  0  0  0  0  0  0  3 V2000
  -26.8844   29.4060  -19.9647 O   0  5  0  0  0  0  0  0  0  0  0  0
  -26.3101   30.3919  -19.3540 N   0  3  0  0  0  0  0  0  0  0  0  0
  -25.8797   31.5294  -20.0436 C   0  0  0  0  0  0  0  0  0  0  0  0
  -26.1304   30.3441  -17.9685 C   0  0  0  0  0  0  0  0  0  0  0  0
  -25.2850   32.5590  -19.3897 N   0  0  0  0  0  0  0  0  0  0  0  0
  -26.0575   31.6236  -21.4109 N   0  0  0  0  0  0  0  0  0  0  0  0
  -26.5363   29.2023  -17.2605 N   0  0  0  0  0  0  0  0  0  0  0  0
  -25.4989   31.4041  -17.3250 C   0  0  0  0  0  0  0  0  0  0  0  0
  -25.0716   32.5033  -18.0570 C   0  0  0  0  0  0  0  0  0  0  0  0
  -24.4495   33.5807  -17.4422 N   0  0  0  0  0  0  0  0  0  0  0  0
  -24.3785   33.5905  -15.9767 C   0  0  0  0  0  0  0  0  0  0  0  0
  -24.4685   34.9112  -18.0538 C   0  0  0  0  0  0  0  0  0  0  0  0
  -25.5850   34.3366  -15.4029 C   0  0  0  0  0  0  0  0  0  0  0  0
  -25.6854   35.6866  -17.5418 C   0  0  0  0  0  0  0  0  0  0  0  0
  -25.7087   35.7355  -16.0120 C   0  0  0  0  0  0  0  0  0  0  0  0
  -26.4984   30.8690  -21.9071 H   0  0  0  0  0  0  0  0  0  0  0  0
  -25.7282   32.4773  -21.8464 H   0  0  0  0  0  0  0  0  0  0  0  0
  -27.5336   29.0199  -17.4048 H   0  0  0  0  0  0  0  0  0  0  0  0
  -26.1717   29.0451  -16.3315 H   0  0  0  0  0  0  0  0  0  0  0  0
  -25.3718   31.3627  -16.2507 H   0  0  0  0  0  0  0  0  0  0  0  0
  -24.2972   32.5841  -15.5487 H   0  0  0  0  0  0  0  0  0  0  0  0
  -23.4602   34.1123  -15.6771 H   0  0  0  0  0  0  0  0  0  0  0  0
  -23.5525   35.4440  -17.7678 H   0  0  0  0  0  0  0  0  0  0  0  0
  -24.4753   34.8915  -19.1473 H   0  0  0  0  0  0  0  0  0  0  0  0
  -25.4892   34.4149  -14.3143 H   0  0  0  0  0  0  0  0  0  0  0  0
  -26.5044   33.7742  -15.6053 H   0  0  0  0  0  0  0  0  0  0  0  0
  -26.6055   35.2098  -17.9019 H   0  0  0  0  0  0  0  0  0  0  0  0
  -25.6712   36.7060  -17.9430 H   0  0  0  0  0  0  0  0  0  0  0  0
  -26.6348   36.2096  -15.6690 H   0  0  0  0  0  0  0  0  0  0  0  0
  -24.8786   36.3591  -15.6576 H   0  0  0  0  0  0  0  0  0  0  0  0
  1  2  1  0  0  0  0
  2  3  2  0  0  0  0
  2  4  1  0  0  0  0
  3  5  1  0  0  0  0
  3  6  1  0  0  0  0
  4  7  1  0  0  0  0
  4  8  2  0  0  0  0
  5  9  2  0  0  0  0
  6 16  1  0  0  0  0
  6 17  1  0  0  0  0
  7 18  1  0  0  0  0
  7 19  1  0  0  0  0
  8  9  1  0  0  0  0
  8 20  1  0  0  0  0
  9 10  1  0  0  0  0
 10 11  1  0  0  0  0
 10 12  1  0  0  0  0
 11 13  1  0  0  0  0
 11 21  1  0  0  0  0
 11 22  1  0  0  0  0
 12 14  1  0  0  0  0
 12 23  1  0  0  0  0
 12 24  1  0  0  0  0
 13 15  1  0  0  0  0
 13 25  1  0  0  0  0
 13 26  1  0  0  0  0
 14 15  1  0  0  0  0
 14 27  1  0  0  0  0
 14 28  1  0  0  0  0
 15 29  1  0  0  0  0
 15 30  1  0  0  0  0
M  CHG  1   1  -1
M  CHG  1   2   1
M  END
>  <Column 1>
Nc1cc(N2CCCCC2)nc(N)[n+]1[O-] ZINC000000001735

>  <Total Molweight>
209.252

>  <cLogP>
0.1716

>  <cLogS>
-5.461

>  <H-Acceptors>
5

>  <H-Donors>
2

>  <Total Surface Area>
156.71

>  <MMFF94 Energy>
49.563

> <Gold.Version>
5.8.1

> <Gold.Id.Protein>
ID|2FQT|mol2

> <Gold.PLP.Fitness>
43.6428

> <Gold.PLP.PLP>
-24.0460

> <Gold.PLP.part.hbond>
-3.0000

> <Gold.PLP.part.metal>
-1.9620

> <Gold.PLP.part.buried>
4.0113

> <Gold.PLP.part.nonpolar>
-23.4030

> <Gold.PLP.part.repulsive>
0.2552

> <Gold.PLP.ligand.clash>
0.0000

> <Gold.PLP.ligand.torsion>
0.1294

> <Gold.PLP.Chemscore.Hbond>
2.6703

> <Gold.PLP.Chemscore.CHOScore>
0.0000

> <Gold.PLP.Chemscore.Metal>
1.9397

> <Gold.Chemscore.Hbonds>
donor molecule, donor type, donor heavy atom, donor atom, acceptor molecule, acceptor atom, score
      L1  H     7    18       P1   403  0.67
      L1  H     7    19       P1   426  1.00
      P1  H   966  2177       L1     1  1.00
      P1  M  1222  1222       L1     1  0.94
      P1  M  1222  1222       L1     7  1.00

> <Gold.PLP.Chemscore.Internal.Correction>
0.2064

> <Gold.Protein.RotatedTorsions>
[ 1849  621  620  617 ] final   -5.72 input   60.00 | X-H torsion

> <Gold.Protein.ActiveResidues>
 HIS54   GLU57   HIS58   ALA61   PHE62   ILE76   ILE77   ASP78   ILE79   SER80  
 PRO81   GLN125  CYS126  GLY127  GLN128  HIS132  CO701  

> <Gold.Protein.RotatedAtoms>
  -19.4615   28.7357  -13.2021 H   0  0  0  0  0  0  0  0  0  0  0  0  # atno 1849 bound_to 621 
  -19.1440   27.3886  -14.0580 LP  0  0  0  0  0  0  0  0  0  0  0  0  # atno 2431 bound_to 621 
  -17.9722   28.0814  -13.1559 LP  0  0  0  0  0  0  0  0  0  0  0  0  # atno 2432 bound_to 621 

$$$$
Compound 15|DecoysActives|sdf|22|dock19
  -GOLD-   6112412123D 1   1.00000     0.00000

 29 31  0  0  0  0  0  0  0  0  1 V2000
  -23.8903   30.2997  -16.9675 O   0  0  0  0  0  0  0  0  0  0  0  0
  -24.8190   30.1703  -17.7634 C   0  0  0  0  0  0  0  0  0  0  0  0
  -25.6019   31.1964  -18.2866 N   0  0  0  0  0  0  0  0  0  0  0  0
  -25.1723   28.8324  -18.2342 C   0  0  0  0  0  0  0  0  0  0  0  0
  -26.6262   31.0046  -19.1712 N   0  0  0  0  0  0  0  0  0  0  0  0
  -25.3171   32.5158  -17.8759 N   0  0  0  0  0  0  0  0  0  0  0  0
  -26.2265   28.7468  -19.1300 C   0  0  0  0  0  0  0  0  0  0  0  0
  -24.4813   27.6926  -17.8029 C   0  0  0  0  0  0  0  0  0  0  0  0
  -26.9362   29.8651  -19.5797 N   0  0  0  0  0  0  0  0  0  0  0  0
  -25.2665   32.6534  -16.4123 C   0  0  0  0  0  0  0  0  0  0  0  0
  -26.2422   33.5004  -18.4573 C   0  0  0  0  0  0  0  0  0  0  0  0
  -26.5941   27.4810  -19.6033 C   0  0  0  0  0  0  0  0  0  0  0  0
  -24.8573   26.4393  -18.2818 C   0  0  0  0  0  0  0  0  0  0  0  0
  -24.9061   34.0941  -16.0263 C   0  0  0  0  0  0  0  0  0  0  0  0
  -25.8554   34.9181  -18.0158 C   0  0  0  0  0  0  0  0  0  0  0  0
  -25.9151   26.3328  -19.1832 C   0  0  0  0  0  0  0  0  0  0  0  0
  -25.8399   35.0291  -16.5853 O   0  0  0  0  0  0  0  0  0  0  0  0
  -23.6565   27.7833  -17.0990 H   0  0  0  0  0  0  0  0  0  0  0  0
  -24.5168   31.9723  -15.9934 H   0  0  0  0  0  0  0  0  0  0  0  0
  -26.2391   32.4005  -15.9708 H   0  0  0  0  0  0  0  0  0  0  0  0
  -26.2146   33.4461  -19.5516 H   0  0  0  0  0  0  0  0  0  0  0  0
  -27.2708   33.2960  -18.1331 H   0  0  0  0  0  0  0  0  0  0  0  0
  -27.4186   27.3889  -20.3071 H   0  0  0  0  0  0  0  0  0  0  0  0
  -24.3269   25.5484  -17.9528 H   0  0  0  0  0  0  0  0  0  0  0  0
  -23.8929   34.3546  -16.3559 H   0  0  0  0  0  0  0  0  0  0  0  0
  -24.9395   34.2055  -14.9378 H   0  0  0  0  0  0  0  0  0  0  0  0
  -26.5889   35.6372  -18.3944 H   0  0  0  0  0  0  0  0  0  0  0  0
  -24.8736   35.2057  -18.4111 H   0  0  0  0  0  0  0  0  0  0  0  0
  -26.2130   25.3569  -19.5602 H   0  0  0  0  0  0  0  0  0  0  0  0
  1  2  2  0  0  0  0
  2  3  1  0  0  0  0
  2  4  1  0  0  0  0
  3  5  1  0  0  0  0
  3  6  1  0  0  0  0
  4  7  2  0  0  0  0
  4  8  1  0  0  0  0
  5  9  2  0  0  0  0
  6 10  1  0  0  0  0
  6 11  1  0  0  0  0
  7 12  1  0  0  0  0
  7  9  1  0  0  0  0
  8 13  2  0  0  0  0
  8 18  1  0  0  0  0
 10 14  1  0  0  0  0
 10 19  1  0  0  0  0
 10 20  1  0  0  0  0
 11 15  1  0  0  0  0
 11 21  1  0  0  0  0
 11 22  1  0  0  0  0
 12 16  2  0  0  0  0
 12 23  1  0  0  0  0
 13 16  1  0  0  0  0
 13 24  1  0  0  0  0
 14 17  1  0  0  0  0
 14 25  1  0  0  0  0
 14 26  1  0  0  0  0
 15 17  1  0  0  0  0
 15 27  1  0  0  0  0
 15 28  1  0  0  0  0
 16 29  1  0  0  0  0
M  END
>  <Column 1>
O=c1c2ccccc2nnn1N1CCOCC1 ZINC000000001746

>  <Total Molweight>
232.242

>  <cLogP>
0.5756

>  <cLogS>
-1.415

>  <H-Acceptors>
6

>  <H-Donors>
0

>  <Total Surface Area>
172.67

>  <MMFF94 Energy>
111.27

> <Gold.Version>
5.8.1

> <Gold.Id.Protein>
ID|2FQT|mol2

> <Gold.PLP.Fitness>
45.0903

> <Gold.PLP.PLP>
-30.2676

> <Gold.PLP.part.hbond>
-1.0000

> <Gold.PLP.part.metal>
-2.0000

> <Gold.PLP.part.buried>
-3.0252

> <Gold.PLP.part.nonpolar>
-25.4485

> <Gold.PLP.part.repulsive>
0.3055

> <Gold.PLP.ligand.clash>
0.0000

> <Gold.PLP.ligand.torsion>
0.0659

> <Gold.PLP.Chemscore.Hbond>
1.0000

> <Gold.PLP.Chemscore.CHOScore>
0.0000

> <Gold.PLP.Chemscore.Metal>
1.9865

> <Gold.Chemscore.Hbonds>
donor molecule, donor type, donor heavy atom, donor atom, acceptor molecule, acceptor atom, score
      P1  H   966  2177       L1     9  1.00
      P1  M  1222  1222       L1     5  0.99
      P1  M  1222  1222       L1     9  1.00

> <Gold.PLP.Chemscore.Internal.Correction>
0.0353

> <Gold.Protein.RotatedTorsions>
[ 1849  621  620  617 ] final   44.39 input   60.00 | X-H torsion

> <Gold.Protein.ActiveResidues>
 HIS54   GLU57   HIS58   ALA61   PHE62   ILE76   ILE77   ASP78   ILE79   SER80  
 PRO81   GLN125  CYS126  GLY127  GLN128  HIS132  CO701  

> <Gold.Protein.RotatedAtoms>
  -18.7307   28.8014  -12.9014 H   0  0  0  0  0  0  0  0  0  0  0  0  # atno 1849 bound_to 621 
  -19.7036   27.9257  -13.8682 LP  0  0  0  0  0  0  0  0  0  0  0  0  # atno 2431 bound_to 621 
  -18.1486   27.4781  -13.6484 LP  0  0  0  0  0  0  0  0  0  0  0  0  # atno 2432 bound_to 621 

$$$$
Compound 16|DecoysActives|sdf|23|dock6
  -GOLD-   6112412123D 1   1.00000     0.00000

 39 41  0  0  0  0  0  0  0  0  1 V2000
  -26.5423   29.4135  -19.6082 O   0  0  0  0  0  0  0  0  0  0  0  0
  -25.6642   29.2817  -18.4821 C   0  0  0  0  0  0  0  0  0  0  0  0
  -26.1992   30.5893  -20.3573 C   0  0  0  0  0  0  0  0  0  0  0  0
  -25.7718   30.4840  -17.5302 C   0  0  0  0  0  0  0  0  0  0  0  0
  -26.3386   31.8625  -19.5102 C   0  0  0  0  0  0  0  0  0  0  0  0
  -25.5636   31.7426  -18.2615 N   0  0  0  0  0  0  0  0  0  0  0  0
  -25.3793   32.9257  -17.5512 C   0  0  0  0  0  0  0  0  0  0  0  0
  -25.5854   34.1167  -18.1505 N   0  0  0  0  0  0  0  0  0  0  0  0
  -24.9445   32.9359  -16.2332 C   0  0  0  0  0  0  0  0  0  0  0  0
  -25.4051   35.3208  -17.4792 N   0  0  0  0  0  0  0  0  0  0  0  0
  -24.7577   34.1447  -15.5535 C   0  0  0  0  0  0  0  0  0  0  0  0
  -24.9996   35.3429  -16.1997 C   0  0  0  0  0  0  0  0  0  0  0  0
  -24.8399   36.5808  -15.5938 N   0  0  0  0  0  0  0  0  0  0  0  0
  -25.0467   37.8035  -16.1438 N   0  0  0  0  0  0  0  0  0  0  0  0
  -26.2120   38.2174  -16.7477 C   0  0  0  0  0  0  0  0  0  0  0  0
  -24.1086   38.8068  -16.2288 C   0  0  0  0  0  0  0  0  0  0  0  0
  -26.0187   39.5095  -17.1964 C   0  0  0  0  0  0  0  0  0  0  0  0
  -27.4144   37.3490  -16.8433 C   0  0  0  0  0  0  0  0  0  0  0  0
  -24.6956   39.8801  -16.8701 C   0  0  0  0  0  0  0  0  0  0  0  0
  -22.7317   38.6611  -15.6878 C   0  0  0  0  0  0  0  0  0  0  0  0
  -25.9396   28.3647  -17.9516 H   0  0  0  0  0  0  0  0  0  0  0  0
  -24.6359   29.1598  -18.8436 H   0  0  0  0  0  0  0  0  0  0  0  0
  -25.1767   30.4825  -20.7394 H   0  0  0  0  0  0  0  0  0  0  0  0
  -26.8714   30.6422  -21.2197 H   0  0  0  0  0  0  0  0  0  0  0  0
  -26.7723   30.5017  -17.0803 H   0  0  0  0  0  0  0  0  0  0  0  0
  -25.0403   30.3391  -16.7299 H   0  0  0  0  0  0  0  0  0  0  0  0
  -25.9947   32.7096  -20.1161 H   0  0  0  0  0  0  0  0  0  0  0  0
  -27.3962   32.0157  -19.2604 H   0  0  0  0  0  0  0  0  0  0  0  0
  -24.7137   32.0156  -15.7109 H   0  0  0  0  0  0  0  0  0  0  0  0
  -24.4151   34.1256  -14.5242 H   0  0  0  0  0  0  0  0  0  0  0  0
  -24.5333   36.5577  -14.6324 H   0  0  0  0  0  0  0  0  0  0  0  0
  -26.7527   40.1164  -17.7115 H   0  0  0  0  0  0  0  0  0  0  0  0
  -27.1734   36.4029  -17.3385 H   0  0  0  0  0  0  0  0  0  0  0  0
  -28.2035   37.8386  -17.4234 H   0  0  0  0  0  0  0  0  0  0  0  0
  -27.8149   37.1322  -15.8479 H   0  0  0  0  0  0  0  0  0  0  0  0
  -24.2165   40.8269  -17.0857 H   0  0  0  0  0  0  0  0  0  0  0  0
  -22.7537   38.5519  -14.5989 H   0  0  0  0  0  0  0  0  0  0  0  0
  -22.2344   37.7861  -16.1184 H   0  0  0  0  0  0  0  0  0  0  0  0
  -22.1249   39.5410  -15.9250 H   0  0  0  0  0  0  0  0  0  0  0  0
  1  2  1  0  0  0  0
  1  3  1  0  0  0  0
  2  4  1  0  0  0  0
  2 21  1  0  0  0  0
  2 22  1  0  0  0  0
  3  5  1  0  0  0  0
  3 23  1  0  0  0  0
  3 24  1  0  0  0  0
  4  6  1  0  0  0  0
  4 25  1  0  0  0  0
  4 26  1  0  0  0  0
  5  6  1  0  0  0  0
  5 27  1  0  0  0  0
  5 28  1  0  0  0  0
  6  7  1  0  0  0  0
  7  8  2  0  0  0  0
  7  9  1  0  0  0  0
  8 10  1  0  0  0  0
  9 11  2  0  0  0  0
  9 29  1  0  0  0  0
 10 12  2  0  0  0  0
 11 12  1  0  0  0  0
 11 30  1  0  0  0  0
 12 13  1  0  0  0  0
 13 14  1  0  0  0  0
 13 31  1  0  0  0  0
 14 15  1  0  0  0  0
 14 16  1  0  0  0  0
 15 17  2  0  0  0  0
 15 18  1  0  0  0  0
 16 19  2  0  0  0  0
 16 20  1  0  0  0  0
 17 19  1  0  0  0  0
 17 32  1  0  0  0  0
 18 33  1  0  0  0  0
 18 34  1  0  0  0  0
 18 35  1  0  0  0  0
 19 36  1  0  0  0  0
 20 37  1  0  0  0  0
 20 38  1  0  0  0  0
 20 39  1  0  0  0  0
M  END
>  <Column 1>
Cc1ccc(C)n1Nc1ccc(N2CCOCC2)nn1 ZINC000000001749

>  <Total Molweight>
273.339

>  <cLogP>
1.5422

>  <cLogS>
-5.421

>  <H-Acceptors>
6

>  <H-Donors>
1

>  <Total Surface Area>
217.56

>  <MMFF94 Energy>
27.498

> <Gold.Version>
5.8.1

> <Gold.Id.Protein>
ID|2FQT|mol2

> <Gold.PLP.Fitness>
50.3908

> <Gold.PLP.PLP>
-44.8674

> <Gold.PLP.part.hbond>
-0.6571

> <Gold.PLP.part.metal>
-0.8009

> <Gold.PLP.part.buried>
-2.1263

> <Gold.PLP.part.nonpolar>
-42.5164

> <Gold.PLP.part.repulsive>
0.1500

> <Gold.PLP.ligand.clash>
0.0000

> <Gold.PLP.ligand.torsion>
1.0133

> <Gold.PLP.Chemscore.Hbond>
0.2730

> <Gold.PLP.Chemscore.CHOScore>
0.0000

> <Gold.PLP.Chemscore.Metal>
0.8963

> <Gold.Chemscore.Hbonds>
donor molecule, donor type, donor heavy atom, donor atom, acceptor molecule, acceptor atom, score
      P1  H   966  2177       L1     1  0.27
      P1  M  1222  1222       L1     1  0.90

> <Gold.PLP.Chemscore.Internal.Correction>
1.3529

> <Gold.Protein.RotatedTorsions>
[ 1849  621  620  617 ] final -116.05 input   60.00 | X-H torsion

> <Gold.Protein.ActiveResidues>
 HIS54   GLU57   HIS58   ALA61   PHE62   ILE76   ILE77   ASP78   ILE79   SER80  
 PRO81   GLN125  CYS126  GLY127  GLN128  HIS132  CO701  

> <Gold.Protein.RotatedAtoms>
  -19.2823   27.4652  -14.0482 H   0  0  0  0  0  0  0  0  0  0  0  0  # atno 1849 bound_to 621 
  -17.9537   27.9501  -13.2434 LP  0  0  0  0  0  0  0  0  0  0  0  0  # atno 2431 bound_to 621 
  -19.3429   28.7993  -13.1184 LP  0  0  0  0  0  0  0  0  0  0  0  0  # atno 2432 bound_to 621 

$$$$
Compound 17|DecoysActives|sdf|24|dock1
  -GOLD-   6112412123D 1   1.00000     0.00000

 24 25  0  0  0  0  0  0  0  0  3 V2000
  -27.0880   29.1839  -19.6060 O   0  0  0  0  0  0  0  0  0  0  0  0
  -26.1190   28.9372  -18.8775 N   0  3  0  0  0  0  0  0  0  0  0  0
  -25.6148   27.8199  -18.6967 O   0  5  0  0  0  0  0  0  0  0  0  0
  -25.5112   30.0221  -18.1738 C   0  0  0  0  0  0  0  0  0  0  0  0
  -26.1934   31.1962  -18.1560 O   0  0  0  0  0  0  0  0  0  0  0  0
  -24.3255   30.1136  -17.4851 C   0  0  0  0  0  0  0  0  0  0  0  0
  -25.4296   32.0778  -17.4344 C   0  0  0  0  0  0  0  0  0  0  0  0
  -24.2727   31.4479  -17.0057 C   0  0  0  0  0  0  0  0  0  0  0  0
  -25.8978   33.4269  -17.2379 C   0  0  0  0  0  0  0  0  0  0  0  0
  -25.2233   34.2588  -16.5141 N   0  0  0  0  0  0  0  0  0  0  0  0
  -25.6775   35.5368  -16.3571 N   0  0  0  0  0  0  0  0  0  0  0  0
  -24.9517   36.7217  -16.1252 C   0  0  0  0  0  0  0  0  0  0  0  0
  -27.1001   35.7782  -16.2839 C   0  0  0  0  0  0  0  0  0  0  0  0
  -23.7469   36.8896  -16.0350 O   0  0  0  0  0  0  0  0  0  0  0  0
  -25.8753   37.7528  -16.0015 N   0  0  0  0  0  0  0  0  0  0  0  0
  -27.2180   37.2941  -16.2195 C   0  0  0  0  0  0  0  0  0  0  0  0
  -23.5983   29.3249  -17.3474 H   0  0  0  0  0  0  0  0  0  0  0  0
  -23.4870   31.9016  -16.4155 H   0  0  0  0  0  0  0  0  0  0  0  0
  -26.8509   33.6651  -17.7315 H   0  0  0  0  0  0  0  0  0  0  0  0
  -27.4869   35.3080  -15.3737 H   0  0  0  0  0  0  0  0  0  0  0  0
  -27.6059   35.3576  -17.1579 H   0  0  0  0  0  0  0  0  0  0  0  0
  -25.5748   38.7056  -15.8464 H   0  0  0  0  0  0  0  0  0  0  0  0
  -27.5721   37.7144  -17.1657 H   0  0  0  0  0  0  0  0  0  0  0  0
  -27.8657   37.6349  -15.4074 H   0  0  0  0  0  0  0  0  0  0  0  0
  1  2  2  0  0  0  0
  2  3  1  0  0  0  0
  2  4  1  0  0  0  0
  4  5  1  0  0  0  0
  4  6  2  0  0  0  0
  5  7  1  0  0  0  0
  6  8  1  0  0  0  0
  6 17  1  0  0  0  0
  7  9  1  0  0  0  0
  7  8  2  0  0  0  0
  8 18  1  0  0  0  0
  9 10  2  0  0  0  0
  9 19  1  0  0  0  0
 10 11  1  0  0  0  0
 11 12  1  0  0  0  0
 11 13  1  0  0  0  0
 12 14  2  0  0  0  0
 12 15  1  0  0  0  0
 13 16  1  0  0  0  0
 13 20  1  0  0  0  0
 13 21  1  0  0  0  0
 15 16  1  0  0  0  0
 15 22  1  0  0  0  0
 16 23  1  0  0  0  0
 16 24  1  0  0  0  0
M  CHG  1   2   1
M  CHG  1   3  -1
M  END
>  <Column 1>
O=C1NCCN1N=Cc1ccc([N+](=O)[O-])o1 ZINC000000001803

>  <Total Molweight>
224.176

>  <cLogP>
-0.02

>  <cLogS>
-3.038

>  <H-Acceptors>
7

>  <H-Donors>
1

>  <Total Surface Area>
164.91

>  <MMFF94 Energy>
65.515

> <Gold.Version>
5.8.1

> <Gold.Id.Protein>
ID|2FQT|mol2

> <Gold.PLP.Fitness>
46.4107

> <Gold.PLP.PLP>
-34.6984

> <Gold.PLP.part.hbond>
-1.0000

> <Gold.PLP.part.metal>
-1.0001

> <Gold.PLP.part.buried>
-1.8143

> <Gold.PLP.part.nonpolar>
-30.5236

> <Gold.PLP.part.repulsive>
0.2409

> <Gold.PLP.ligand.clash>
0.0000

> <Gold.PLP.ligand.torsion>
0.2792

> <Gold.PLP.Chemscore.Hbond>
1.0000

> <Gold.PLP.Chemscore.CHOScore>
0.0000

> <Gold.PLP.Chemscore.Metal>
1.5400

> <Gold.Chemscore.Hbonds>
donor molecule, donor type, donor heavy atom, donor atom, acceptor molecule, acceptor atom, score
      P1  H   966  2177       L1     1  1.00
      P1  M  1222  1222       L1     1  1.00
      P1  M  1222  1222       L1     5  0.54

> <Gold.PLP.Chemscore.Internal.Correction>
0.0310

> <Gold.Protein.RotatedTorsions>
[ 1849  621  620  617 ] final   15.01 input   60.00 | X-H torsion

> <Gold.Protein.ActiveResidues>
 HIS54   GLU57   HIS58   ALA61   PHE62   ILE76   ILE77   ASP78   ILE79   SER80  
 PRO81   GLN125  CYS126  GLY127  GLN128  HIS132  CO701  

> <Gold.Protein.RotatedAtoms>
  -19.1848   28.8332  -13.0364 H   0  0  0  0  0  0  0  0  0  0  0  0  # atno 1849 bound_to 621 
  -19.4307   27.5677  -14.0294 LP  0  0  0  0  0  0  0  0  0  0  0  0  # atno 2431 bound_to 621 
  -17.9641   27.8041  -13.3513 LP  0  0  0  0  0  0  0  0  0  0  0  0  # atno 2432 bound_to 621 

$$$$
Compound 18|DecoysActives|sdf|25|dock3
  -GOLD-   6112412123D 1   1.00000     0.00000

 30 30  0  0  0  0  0  0  0  0  3 V2000
  -23.9769   34.0602  -17.2533 O   0  5  0  0  0  0  0  0  0  0  0  0
  -25.0517   33.3608  -16.6985 N   0  3  0  0  0  0  0  0  0  0  0  0
  -25.4393   32.2020  -17.6154 C   0  0  0  0  0  0  0  0  0  0  0  0
  -24.6080   32.7788  -15.3720 C   0  0  0  0  0  0  0  0  0  0  0  0
  -26.2102   34.3190  -16.4853 C   0  0  0  0  0  0  0  0  0  0  0  0
  -25.4992   30.9780  -17.0811 N   0  0  0  0  0  0  0  0  0  0  0  0
  -25.7897   32.4704  -18.8777 N   0  0  0  0  0  0  0  0  0  0  0  0
  -23.4172   31.8553  -15.3513 C   0  0  0  0  0  0  0  0  0  0  0  0
  -25.8955   35.7151  -16.0046 C   0  0  0  0  0  0  0  0  0  0  0  0
  -25.8597   30.0100  -17.9012 C   0  0  0  0  0  0  0  0  0  0  0  0
  -26.1433   31.4239  -19.6043 C   0  0  0  0  0  0  0  0  0  0  0  0
  -22.2745   32.1044  -14.6973 C   0  0  0  0  0  0  0  0  0  0  0  0
  -26.7694   36.7312  -15.9959 C   0  0  0  0  0  0  0  0  0  0  0  0
  -26.1961   30.1784  -19.1682 N   0  0  0  0  0  0  0  0  0  0  0  0
  -25.8980   28.7423  -17.3960 N   0  0  0  0  0  0  0  0  0  0  0  0
  -26.4887   31.6517  -20.9051 N   0  0  0  0  0  0  0  0  0  0  0  0
  -25.4976   32.2720  -14.9747 H   0  0  0  0  0  0  0  0  0  0  0  0
  -24.4160   33.6343  -14.7113 H   0  0  0  0  0  0  0  0  0  0  0  0
  -26.7680   34.3749  -17.4270 H   0  0  0  0  0  0  0  0  0  0  0  0
  -26.8530   33.8168  -15.7502 H   0  0  0  0  0  0  0  0  0  0  0  0
  -23.4972   30.9397  -15.9353 H   0  0  0  0  0  0  0  0  0  0  0  0
  -24.8900   35.8906  -15.6303 H   0  0  0  0  0  0  0  0  0  0  0  0
  -21.4468   31.4010  -14.7391 H   0  0  0  0  0  0  0  0  0  0  0  0
  -22.1276   33.0101  -14.1157 H   0  0  0  0  0  0  0  0  0  0  0  0
  -27.7931   36.6112  -16.3362 H   0  0  0  0  0  0  0  0  0  0  0  0
  -26.4788   37.7072  -15.6189 H   0  0  0  0  0  0  0  0  0  0  0  0
  -25.6523   28.6050  -16.4317 H   0  0  0  0  0  0  0  0  0  0  0  0
  -26.3247   28.0297  -17.9642 H   0  0  0  0  0  0  0  0  0  0  0  0
  -26.4618   32.5923  -21.2569 H   0  0  0  0  0  0  0  0  0  0  0  0
  -26.6843   30.8535  -21.4851 H   0  0  0  0  0  0  0  0  0  0  0  0
  1  2  1  0  0  0  0
  2  3  1  0  0  0  0
  2  4  1  0  0  0  0
  2  5  1  0  0  0  0
  3  6  2  0  0  0  0
  3  7  1  0  0  0  0
  4  8  1  0  0  0  0
  4 17  1  0  0  0  0
  4 18  1  0  0  0  0
  5  9  1  0  0  0  0
  5 19  1  0  0  0  0
  5 20  1  0  0  0  0
  6 10  1  0  0  0  0
  7 11  2  0  0  0  0
  8 12  2  0  0  0  0
  8 21  1  0  0  0  0
  9 13  2  0  0  0  0
  9 22  1  0  0  0  0
 10 14  2  0  0  0  0
 10 15  1  0  0  0  0
 11 16  1  0  0  0  0
 11 14  1  0  0  0  0
 12 23  1  0  0  0  0
 12 24  1  0  0  0  0
 13 25  1  0  0  0  0
 13 26  1  0  0  0  0
 15 27  1  0  0  0  0
 15 28  1  0  0  0  0
 16 29  1  0  0  0  0
 16 30  1  0  0  0  0
M  CHG  1   1  -1
M  CHG  1   2   1
M  END
>  <Column 1>
C=CC[N+]([O-])(CC=C)c1nc(N)nc(N)n1 ZINC000000001876

>  <Total Molweight>
222.251

>  <cLogP>
0.0951

>  <cLogS>
-3.13

>  <H-Acceptors>
6

>  <H-Donors>
2

>  <Total Surface Area>
175.35

>  <MMFF94 Energy>
-161.87

> <Gold.Version>
5.8.1

> <Gold.Id.Protein>
ID|2FQT|mol2

> <Gold.PLP.Fitness>
44.0895

> <Gold.PLP.PLP>
-36.0370

> <Gold.PLP.part.hbond>
-1.9532

> <Gold.PLP.part.metal>
-0.4935

> <Gold.PLP.part.buried>
-0.6398

> <Gold.PLP.part.nonpolar>
-33.8929

> <Gold.PLP.part.repulsive>
1.0921

> <Gold.PLP.ligand.clash>
0.0000

> <Gold.PLP.ligand.torsion>
0.4563

> <Gold.PLP.Chemscore.Hbond>
1.4240

> <Gold.PLP.Chemscore.CHOScore>
0.0000

> <Gold.PLP.Chemscore.Metal>
0.7716

> <Gold.Chemscore.Hbonds>
donor molecule, donor type, donor heavy atom, donor atom, acceptor molecule, acceptor atom, score
      L1  H    15    27       P1   426  0.96
      L1  H    16    29       P1   954  0.46
      P1  M  1222  1222       L1    14  0.77

> <Gold.PLP.Chemscore.Internal.Correction>
0.0633

> <Gold.Protein.RotatedTorsions>
[ 1849  621  620  617 ] final   68.46 input   60.00 | X-H torsion

> <Gold.Protein.ActiveResidues>
 HIS54   GLU57   HIS58   ALA61   PHE62   ILE76   ILE77   ASP78   ILE79   SER80  
 PRO81   GLN125  CYS126  GLY127  GLN128  HIS132  CO701  

> <Gold.Protein.RotatedAtoms>
  -18.3784   28.6331  -12.8995 H   0  0  0  0  0  0  0  0  0  0  0  0  # atno 1849 bound_to 621 
  -19.7670   28.2515  -13.6573 LP  0  0  0  0  0  0  0  0  0  0  0  0  # atno 2431 bound_to 621 
  -18.4400   27.3219  -13.8613 LP  0  0  0  0  0  0  0  0  0  0  0  0  # atno 2432 bound_to 621 

$$$$
Compound 19|DecoysActives|sdf|26|dock3
  -GOLD-   6112412123D 1   1.00000     0.00000

 30 30  0  0  0  0  0  0  0  0  1 V2000
  -26.1488   34.6350  -16.6599 N   0  0  0  0  0  0  0  0  0  0  0  0
  -26.5819   35.6461  -17.4050 C   0  0  0  0  0  0  0  0  0  0  0  0
  -25.6195   33.5924  -17.2913 C   0  0  0  0  0  0  0  0  0  0  0  0
  -26.5089   35.6446  -18.7297 N   0  0  0  0  0  0  0  0  0  0  0  0
  -27.1329   36.7468  -16.7725 N   0  0  0  0  0  0  0  0  0  0  0  0
  -25.5173   33.5285  -18.6132 N   0  0  0  0  0  0  0  0  0  0  0  0
  -25.1559   32.5281  -16.5381 N   0  0  0  0  0  0  0  0  0  0  0  0
  -25.9695   34.5724  -19.2871 C   0  0  0  0  0  0  0  0  0  0  0  0
  -27.5828   36.6025  -15.4059 C   0  0  0  0  0  0  0  0  0  0  0  0
  -26.8738   38.0586  -17.3222 C   0  0  0  0  0  0  0  0  0  0  0  0
  -24.4797   31.4458  -17.2176 C   0  0  0  0  0  0  0  0  0  0  0  0
  -24.9952   32.7100  -15.1127 C   0  0  0  0  0  0  0  0  0  0  0  0
  -25.8550   34.4951  -20.6500 N   0  0  0  0  0  0  0  0  0  0  0  0
  -24.8512   35.2257  -21.3652 C   0  0  0  0  0  0  0  0  0  0  0  0
  -28.3085   35.7875  -15.3052 H   0  0  0  0  0  0  0  0  0  0  0  0
  -26.7382   36.4120  -14.7342 H   0  0  0  0  0  0  0  0  0  0  0  0
  -28.0838   37.5120  -15.0568 H   0  0  0  0  0  0  0  0  0  0  0  0
  -27.1716   38.1195  -18.3752 H   0  0  0  0  0  0  0  0  0  0  0  0
  -25.8120   38.3156  -17.2371 H   0  0  0  0  0  0  0  0  0  0  0  0
  -27.4438   38.8291  -16.7915 H   0  0  0  0  0  0  0  0  0  0  0  0
  -25.1013   31.0199  -18.0136 H   0  0  0  0  0  0  0  0  0  0  0  0
  -23.5322   31.7864  -17.6496 H   0  0  0  0  0  0  0  0  0  0  0  0
  -24.2522   30.6264  -16.5269 H   0  0  0  0  0  0  0  0  0  0  0  0
  -25.9272   33.0432  -14.6422 H   0  0  0  0  0  0  0  0  0  0  0  0
  -24.2068   33.4400  -14.8980 H   0  0  0  0  0  0  0  0  0  0  0  0
  -24.7170   31.7701  -14.6233 H   0  0  0  0  0  0  0  0  0  0  0  0
  -26.4912   33.8613  -21.1054 H   0  0  0  0  0  0  0  0  0  0  0  0
  -23.8445   34.9336  -21.0487 H   0  0  0  0  0  0  0  0  0  0  0  0
  -24.9705   36.3056  -21.2280 H   0  0  0  0  0  0  0  0  0  0  0  0
  -24.9362   35.0164  -22.4362 H   0  0  0  0  0  0  0  0  0  0  0  0
  1  2  2  0  0  0  0
  1  3  1  0  0  0  0
  2  4  1  0  0  0  0
  2  5  1  0  0  0  0
  3  6  2  0  0  0  0
  3  7  1  0  0  0  0
  4  8  2  0  0  0  0
  5  9  1  0  0  0  0
  5 10  1  0  0  0  0
  6  8  1  0  0  0  0
  7 11  1  0  0  0  0
  7 12  1  0  0  0  0
  8 13  1  0  0  0  0
  9 15  1  0  0  0  0
  9 16  1  0  0  0  0
  9 17  1  0  0  0  0
 10 18  1  0  0  0  0
 10 19  1  0  0  0  0
 10 20  1  0  0  0  0
 11 21  1  0  0  0  0
 11 22  1  0  0  0  0
 11 23  1  0  0  0  0
 12 24  1  0  0  0  0
 12 25  1  0  0  0  0
 12 26  1  0  0  0  0
 13 14  1  0  0  0  0
 13 27  1  0  0  0  0
 14 28  1  0  0  0  0
 14 29  1  0  0  0  0
 14 30  1  0  0  0  0
M  END
>  <Column 1>
CNc1nc(N(C)C)nc(N(C)C)n1 ZINC000000001900

>  <Total Molweight>
196.257

>  <cLogP>
0.521

>  <cLogS>
-1.934

>  <H-Acceptors>
6

>  <H-Donors>
1

>  <Total Surface Area>
162.9

>  <MMFF94 Energy>
-254.44

> <Gold.Version>
5.8.1

> <Gold.Id.Protein>
ID|2FQT|mol2

> <Gold.PLP.Fitness>
35.8511

> <Gold.PLP.PLP>
-34.9084

> <Gold.PLP.part.hbond>
-1.0000

> <Gold.PLP.part.metal>
0.0000

> <Gold.PLP.part.buried>
-2.0643

> <Gold.PLP.part.nonpolar>
-32.0167

> <Gold.PLP.part.repulsive>
0.1689

> <Gold.PLP.ligand.clash>
0.0000

> <Gold.PLP.ligand.torsion>
1.0959

> <Gold.PLP.Chemscore.Hbond>
0.9920

> <Gold.PLP.Chemscore.CHOScore>
0.0000

> <Gold.PLP.Chemscore.Metal>
0.0000

> <Gold.Chemscore.Hbonds>
donor molecule, donor type, donor heavy atom, donor atom, acceptor molecule, acceptor atom, score
      L1  H    13    27       P1   954  0.99

> <Gold.PLP.Chemscore.Internal.Correction>
0.1586

> <Gold.Protein.RotatedTorsions>
[ 1849  621  620  617 ] final   35.81 input   60.00 | X-H torsion

> <Gold.Protein.ActiveResidues>
 HIS54   GLU57   HIS58   ALA61   PHE62   ILE76   ILE77   ASP78   ILE79   SER80  
 PRO81   GLN125  CYS126  GLY127  GLN128  HIS132  CO701  

> <Gold.Protein.RotatedAtoms>
  -18.8651   28.8315  -12.9266 H   0  0  0  0  0  0  0  0  0  0  0  0  # atno 1849 bound_to 621 
  -19.6441   27.8128  -13.9283 LP  0  0  0  0  0  0  0  0  0  0  0  0  # atno 2431 bound_to 621 
  -18.0726   27.5607  -13.5630 LP  0  0  0  0  0  0  0  0  0  0  0  0  # atno 2432 bound_to 621 

$$$$
Compound 20|DecoysActives|sdf|27|dock4
  -GOLD-   6112412123D 1   1.00000     0.00000

 28 29  0  0  0  0  0  0  0  0  1 V2000
  -25.3158   31.0056  -18.3475 S   0  0  0  0  0  0  0  0  0  0  0  0
  -26.4526   30.1336  -18.1013 O   0  0  0  0  0  0  0  0  0  0  0  0
  -23.9715   30.5491  -18.0250 O   0  0  0  0  0  0  0  0  0  0  0  0
  -25.3241   31.4091  -20.0836 C   0  0  0  0  0  0  0  0  0  0  0  0
  -25.5761   32.5067  -17.4276 C   0  0  0  0  0  0  0  0  0  0  0  0
  -24.7003   32.5700  -20.4049 N   0  0  0  0  0  0  0  0  0  0  0  0
  -25.8970   30.5375  -20.9959 C   0  0  0  0  0  0  0  0  0  0  0  0
  -26.1967   33.5978  -18.0390 C   0  0  0  0  0  0  0  0  0  0  0  0
  -25.1131   32.5999  -16.1139 C   0  0  0  0  0  0  0  0  0  0  0  0
  -24.6773   32.8714  -21.7247 C   0  0  0  0  0  0  0  0  0  0  0  0
  -25.8467   30.8922  -22.3429 C   0  0  0  0  0  0  0  0  0  0  0  0
  -26.3705   34.7821  -17.3172 C   0  0  0  0  0  0  0  0  0  0  0  0
  -25.2944   33.7900  -15.4042 C   0  0  0  0  0  0  0  0  0  0  0  0
  -25.2428   32.0885  -22.7341 C   0  0  0  0  0  0  0  0  0  0  0  0
  -25.9123   34.8934  -16.0008 C   0  0  0  0  0  0  0  0  0  0  0  0
  -25.1533   32.4304  -24.0705 N   0  0  0  0  0  0  0  0  0  0  0  0
  -26.1157   36.0573  -15.2829 N   0  0  0  0  0  0  0  0  0  0  0  0
  -26.3644   29.6119  -20.6766 H   0  0  0  0  0  0  0  0  0  0  0  0
  -26.5465   33.5403  -19.0669 H   0  0  0  0  0  0  0  0  0  0  0  0
  -24.6217   31.7562  -15.6348 H   0  0  0  0  0  0  0  0  0  0  0  0
  -24.1682   33.8011  -21.9654 H   0  0  0  0  0  0  0  0  0  0  0  0
  -26.2815   30.2270  -23.0843 H   0  0  0  0  0  0  0  0  0  0  0  0
  -26.8645   35.6239  -17.7959 H   0  0  0  0  0  0  0  0  0  0  0  0
  -24.9437   33.8492  -14.3771 H   0  0  0  0  0  0  0  0  0  0  0  0
  -24.6669   33.2715  -24.3519 H   0  0  0  0  0  0  0  0  0  0  0  0
  -25.3933   31.7619  -24.7910 H   0  0  0  0  0  0  0  0  0  0  0  0
  -26.5980   36.8393  -15.7036 H   0  0  0  0  0  0  0  0  0  0  0  0
  -25.9393   36.0828  -14.2881 H   0  0  0  0  0  0  0  0  0  0  0  0
  1  2  2  0  0  0  0
  1  3  2  0  0  0  0
  1  4  1  0  0  0  0
  1  5  1  0  0  0  0
  4  6  2  0  0  0  0
  4  7  1  0  0  0  0
  5  8  2  0  0  0  0
  5  9  1  0  0  0  0
  6 10  1  0  0  0  0
  7 11  2  0  0  0  0
  7 18  1  0  0  0  0
  8 12  1  0  0  0  0
  8 19  1  0  0  0  0
  9 13  2  0  0  0  0
  9 20  1  0  0  0  0
 10 14  2  0  0  0  0
 10 21  1  0  0  0  0
 11 14  1  0  0  0  0
 11 22  1  0  0  0  0
 12 15  2  0  0  0  0
 12 23  1  0  0  0  0
 13 15  1  0  0  0  0
 13 24  1  0  0  0  0
 14 16  1  0  0  0  0
 15 17  1  0  0  0  0
 16 25  1  0  0  0  0
 16 26  1  0  0  0  0
 17 27  1  0  0  0  0
 17 28  1  0  0  0  0
M  END
>  <Column 1>
Nc1ccc(S(=O)(=O)c2ccc(N)cn2)cc1 ZINC000000002008

>  <Total Molweight>
249.293

>  <cLogP>
0.1067

>  <cLogS>
-2.272

>  <H-Acceptors>
5

>  <H-Donors>
2

>  <Total Surface Area>
177.4

>  <MMFF94 Energy>
134.99

> <Gold.Version>
5.8.1

> <Gold.Id.Protein>
ID|2FQT|mol2

> <Gold.PLP.Fitness>
42.6672

> <Gold.PLP.PLP>
-34.7627

> <Gold.PLP.part.hbond>
-1.0000

> <Gold.PLP.part.metal>
-1.0000

> <Gold.PLP.part.buried>
-5.7919

> <Gold.PLP.part.nonpolar>
-27.3418

> <Gold.PLP.part.repulsive>
0.3398

> <Gold.PLP.ligand.clash>
0.0000

> <Gold.PLP.ligand.torsion>
2.3376

> <Gold.PLP.Chemscore.Hbond>
0.8320

> <Gold.PLP.Chemscore.CHOScore>
0.0000

> <Gold.PLP.Chemscore.Metal>
1.0000

> <Gold.Chemscore.Hbonds>
donor molecule, donor type, donor heavy atom, donor atom, acceptor molecule, acceptor atom, score
      L1  H    17    28       P1   431  0.83
      P1  M  1222  1222       L1     2  1.00

> <Gold.PLP.Chemscore.Internal.Correction>
4.0837

> <Gold.Protein.RotatedTorsions>
[ 1849  621  620  617 ] final -171.28 input   60.00 | X-H torsion

> <Gold.Protein.ActiveResidues>
 HIS54   GLU57   HIS58   ALA61   PHE62   ILE76   ILE77   ASP78   ILE79   SER80  
 PRO81   GLN125  CYS126  GLY127  GLN128  HIS132  CO701  

> <Gold.Protein.RotatedAtoms>
  -18.4471   27.3248  -13.8587 H   0  0  0  0  0  0  0  0  0  0  0  0  # atno 1849 bound_to 621 
  -18.3709   28.6360  -12.8978 LP  0  0  0  0  0  0  0  0  0  0  0  0  # atno 2431 bound_to 621 
  -19.7668   28.2549  -13.6548 LP  0  0  0  0  0  0  0  0  0  0  0  0  # atno 2432 bound_to 621 

$$$$
Compound 21|DecoysActives|sdf|28|dock3
  -GOLD-   6112412123D 1   1.00000     0.00000

 14 14  0  0  0  0  0  0  0  0  1 V2000
  -26.7987   34.5396  -19.5285 O   0  0  0  0  0  0  0  0  0  0  0  0
  -26.3397   34.3489  -18.2581 C   0  0  0  0  0  0  0  0  0  0  0  0
  -26.5031   35.3848  -17.3456 C   0  0  0  0  0  0  0  0  0  0  0  0
  -25.7264   33.1559  -17.8824 C   0  0  0  0  0  0  0  0  0  0  0  0
  -26.0457   35.2206  -16.0431 C   0  0  0  0  0  0  0  0  0  0  0  0
  -25.2706   33.0014  -16.5712 C   0  0  0  0  0  0  0  0  0  0  0  0
  -26.2202   36.2547  -15.1707 O   0  0  0  0  0  0  0  0  0  0  0  0
  -25.4296   34.0359  -15.6464 C   0  0  0  0  0  0  0  0  0  0  0  0
  -27.2947   33.7511  -19.8017 H   0  0  0  0  0  0  0  0  0  0  0  0
  -26.9821   36.3110  -17.6465 H   0  0  0  0  0  0  0  0  0  0  0  0
  -25.5959   32.3433  -18.5899 H   0  0  0  0  0  0  0  0  0  0  0  0
  -24.7908   32.0736  -16.2697 H   0  0  0  0  0  0  0  0  0  0  0  0
  -26.2469   35.8987  -14.2679 H   0  0  0  0  0  0  0  0  0  0  0  0
  -25.0703   33.9013  -14.6310 H   0  0  0  0  0  0  0  0  0  0  0  0
  1  2  1  0  0  0  0
  1  9  1  0  0  0  0
  2  3  2  0  0  0  0
  2  4  1  0  0  0  0
  3  5  1  0  0  0  0
  3 10  1  0  0  0  0
  4  6  2  0  0  0  0
  4 11  1  0  0  0  0
  5  7  1  0  0  0  0
  5  8  2  0  0  0  0
  6  8  1  0  0  0  0
  6 12  1  0  0  0  0
  7 13  1  0  0  0  0
  8 14  1  0  0  0  0
M  END
>  <Column 1>
Oc1cccc(O)c1 ZINC000000002028

>  <Total Molweight>
110.112

>  <cLogP>
0.9682

>  <cLogS>
-1.024

>  <H-Acceptors>
2

>  <H-Donors>
2

>  <Total Surface Area>
85.96

>  <MMFF94 Energy>
-3.9017

> <Gold.Version>
5.8.1

> <Gold.Id.Protein>
ID|2FQT|mol2

> <Gold.PLP.Fitness>
28.4270

> <Gold.PLP.PLP>
-24.1310

> <Gold.PLP.part.hbond>
-2.0000

> <Gold.PLP.part.metal>
0.0000

> <Gold.PLP.part.buried>
-3.7324

> <Gold.PLP.part.nonpolar>
-18.3984

> <Gold.PLP.part.repulsive>
0.0000

> <Gold.PLP.ligand.clash>
0.0000

> <Gold.PLP.ligand.torsion>
0.0000

> <Gold.PLP.Chemscore.Hbond>
1.4320

> <Gold.PLP.Chemscore.CHOScore>
0.0000

> <Gold.PLP.Chemscore.Metal>
0.0000

> <Gold.Chemscore.Hbonds>
donor molecule, donor type, donor heavy atom, donor atom, acceptor molecule, acceptor atom, score
      L1  H     1     9       P1   954  0.43
      L1  H     7    13       P1   431  1.00

> <Gold.PLP.Chemscore.Internal.Correction>
0.0000

> <Gold.Protein.RotatedTorsions>
[ 1849  621  620  617 ] final  177.84 input   60.00 | X-H torsion

> <Gold.Protein.ActiveResidues>
 HIS54   GLU57   HIS58   ALA61   PHE62   ILE76   ILE77   ASP78   ILE79   SER80  
 PRO81   GLN125  CYS126  GLY127  GLN128  HIS132  CO701  

> <Gold.Protein.RotatedAtoms>
  -18.3034   27.3795  -13.7697 H   0  0  0  0  0  0  0  0  0  0  0  0  # atno 1849 bound_to 621 
  -18.5240   28.7276  -12.8854 LP  0  0  0  0  0  0  0  0  0  0  0  0  # atno 2431 bound_to 621 
  -19.7584   28.1082  -13.7568 LP  0  0  0  0  0  0  0  0  0  0  0  0  # atno 2432 bound_to 621 

$$$$
Compound 22|DecoysActives|sdf|29|dock2
  -GOLD-   6112412123D 1   1.00000     0.00000

 20 22  0  0  0  0  0  0  0  0  1 V2000
  -26.7598   31.2455  -19.2818 N   0  0  0  0  0  0  0  0  0  0  0  0
  -26.8695   30.0246  -19.8790 N   0  0  0  0  0  0  0  0  0  0  0  0
  -25.8651   31.4479  -18.2923 C   0  0  0  0  0  0  0  0  0  0  0  0
  -26.0698   29.0336  -19.4609 C   0  0  0  0  0  0  0  0  0  0  0  0
  -25.0674   30.3623  -17.9141 C   0  0  0  0  0  0  0  0  0  0  0  0
  -25.7182   32.6922  -17.6480 C   0  0  0  0  0  0  0  0  0  0  0  0
  -25.1570   29.1450  -18.4894 N   0  0  0  0  0  0  0  0  0  0  0  0
  -24.1627   30.5992  -16.9006 C   0  0  0  0  0  0  0  0  0  0  0  0
  -24.7573   32.8065  -16.6265 C   0  0  0  0  0  0  0  0  0  0  0  0
  -26.4968   33.8219  -17.9892 C   0  0  0  0  0  0  0  0  0  0  0  0
  -23.9883   31.7774  -16.2547 N   0  0  0  0  0  0  0  0  0  0  0  0
  -24.6032   34.0280  -15.9837 C   0  0  0  0  0  0  0  0  0  0  0  0
  -26.3253   35.0383  -17.3309 C   0  0  0  0  0  0  0  0  0  0  0  0
  -25.3749   35.1414  -16.3244 C   0  0  0  0  0  0  0  0  0  0  0  0
  -26.1747   28.0733  -19.9494 H   0  0  0  0  0  0  0  0  0  0  0  0
  -23.5126   29.7968  -16.5596 H   0  0  0  0  0  0  0  0  0  0  0  0
  -27.2460   33.7527  -18.7776 H   0  0  0  0  0  0  0  0  0  0  0  0
  -23.8601   34.1162  -15.1938 H   0  0  0  0  0  0  0  0  0  0  0  0
  -26.9316   35.8983  -17.6044 H   0  0  0  0  0  0  0  0  0  0  0  0
  -25.2295   36.0836  -15.8018 H   0  0  0  0  0  0  0  0  0  0  0  0
  1  2  2  0  0  0  0
  1  3  1  0  0  0  0
  2  4  1  0  0  0  0
  3  5  1  0  0  0  0
  3  6  2  0  0  0  0
  4  7  2  0  0  0  0
  4 15  1  0  0  0  0
  5  8  2  0  0  0  0
  5  7  1  0  0  0  0
  6  9  1  0  0  0  0
  6 10  1  0  0  0  0
  8 11  1  0  0  0  0
  8 16  1  0  0  0  0
  9 12  1  0  0  0  0
  9 11  2  0  0  0  0
 10 13  2  0  0  0  0
 10 17  1  0  0  0  0
 12 14  2  0  0  0  0
 12 18  1  0  0  0  0
 13 14  1  0  0  0  0
 13 19  1  0  0  0  0
 14 20  1  0  0  0  0
M  END
>  <Column 1>
c1ccc2c(c1)ncc1ncnnc12 ZINC000000002080

>  <Total Molweight>
182.186

>  <cLogP>
1.0229

>  <cLogS>
-2.263

>  <H-Acceptors>
4

>  <H-Donors>
0

>  <Total Surface Area>
137.5

>  <MMFF94 Energy>
78.387

> <Gold.Version>
5.8.1

> <Gold.Id.Protein>
ID|2FQT|mol2

> <Gold.PLP.Fitness>
43.0428

> <Gold.PLP.PLP>
-27.8181

> <Gold.PLP.part.hbond>
-1.0000

> <Gold.PLP.part.metal>
-1.9975

> <Gold.PLP.part.buried>
-1.8839

> <Gold.PLP.part.nonpolar>
-23.0004

> <Gold.PLP.part.repulsive>
0.3207

> <Gold.PLP.ligand.clash>
0.0000

> <Gold.PLP.ligand.torsion>
0.0000

> <Gold.PLP.Chemscore.Hbond>
1.0000

> <Gold.PLP.Chemscore.CHOScore>
0.2049

> <Gold.PLP.Chemscore.Metal>
1.9350

> <Gold.Chemscore.Hbonds>
donor molecule, donor type, donor heavy atom, donor atom, acceptor molecule, acceptor atom, score
      P1  H   966  2177       L1     2  1.00
      L1  C     8    16       P1   427  0.20
      P1  M  1222  1222       L1     1  0.94
      P1  M  1222  1222       L1     2  1.00

> <Gold.PLP.Chemscore.Internal.Correction>
0.0000

> <Gold.Protein.RotatedTorsions>
[ 1849  621  620  617 ] final  125.99 input   60.00 | X-H torsion

> <Gold.Protein.ActiveResidues>
 HIS54   GLU57   HIS58   ALA61   PHE62   ILE76   ILE77   ASP78   ILE79   SER80  
 PRO81   GLN125  CYS126  GLY127  GLN128  HIS132  CO701  

> <Gold.Protein.RotatedAtoms>
  -17.9601   27.9223  -13.2624 H   0  0  0  0  0  0  0  0  0  0  0  0  # atno 1849 bound_to 621 
  -19.3152   28.8089  -13.1019 LP  0  0  0  0  0  0  0  0  0  0  0  0  # atno 2431 bound_to 621 
  -19.3130   27.4802  -14.0512 LP  0  0  0  0  0  0  0  0  0  0  0  0  # atno 2432 bound_to 621 

$$$$
Compound 23|DecoysActives|sdf|30|dock2
  -GOLD-   6112412123D 1   1.00000     0.00000

 19 19  0  0  0  0  0  0  0  0  1 V2000
  -25.0349   30.5788  -17.9492 S   0  0  0  0  0  0  0  0  0  0  0  0
  -23.9187   29.9083  -17.3241 O   0  0  0  0  0  0  0  0  0  0  0  0
  -25.1294   30.7550  -19.3798 O   0  0  0  0  0  0  0  0  0  0  0  0
  -26.4016   29.7127  -17.5011 N   0  0  0  0  0  0  0  0  0  0  0  0
  -25.3064   32.1315  -17.1498 C   0  0  0  0  0  0  0  0  0  0  0  0
  -25.7429   33.2275  -17.8957 C   0  0  0  0  0  0  0  0  0  0  0  0
  -25.0427   32.2636  -15.7856 C   0  0  0  0  0  0  0  0  0  0  0  0
  -25.9318   34.4591  -17.2621 C   0  0  0  0  0  0  0  0  0  0  0  0
  -25.2360   33.5010  -15.1647 C   0  0  0  0  0  0  0  0  0  0  0  0
  -25.6705   34.6102  -15.8969 C   0  0  0  0  0  0  0  0  0  0  0  0
  -25.8883   35.8229  -15.2706 N   0  0  0  0  0  0  0  0  0  0  0  0
  -27.2299   30.3000  -17.5970 H   0  0  0  0  0  0  0  0  0  0  0  0
  -26.2745   29.3258  -16.5656 H   0  0  0  0  0  0  0  0  0  0  0  0
  -25.9394   33.1348  -18.9612 H   0  0  0  0  0  0  0  0  0  0  0  0
  -24.6917   31.4169  -15.2008 H   0  0  0  0  0  0  0  0  0  0  0  0
  -26.2824   35.3054  -17.8476 H   0  0  0  0  0  0  0  0  0  0  0  0
  -25.0388   33.5931  -14.0997 H   0  0  0  0  0  0  0  0  0  0  0  0
  -26.2390   36.6139  -15.7929 H   0  0  0  0  0  0  0  0  0  0  0  0
  -25.8564   35.8924  -14.2627 H   0  0  0  0  0  0  0  0  0  0  0  0
  1  2  2  0  0  0  0
  1  3  2  0  0  0  0
  1  4  1  0  0  0  0
  1  5  1  0  0  0  0
  4 12  1  0  0  0  0
  4 13  1  0  0  0  0
  5  6  2  0  0  0  0
  5  7  1  0  0  0  0
  6  8  1  0  0  0  0
  6 14  1  0  0  0  0
  7  9  2  0  0  0  0
  7 15  1  0  0  0  0
  8 10  2  0  0  0  0
  8 16  1  0  0  0  0
  9 10  1  0  0  0  0
  9 17  1  0  0  0  0
 10 11  1  0  0  0  0
 11 18  1  0  0  0  0
 11 19  1  0  0  0  0
M  END
>  <Column 1>
Nc1ccc(S(N)(=O)=O)cc1 ZINC000000002101

>  <Total Molweight>
172.208

>  <cLogP>
-0.2537

>  <cLogS>
-1.591

>  <H-Acceptors>
4

>  <H-Donors>
2

>  <Total Surface Area>
118.88

>  <MMFF94 Energy>
-67.486

> <Gold.Version>
5.8.1

> <Gold.Id.Protein>
ID|2FQT|mol2

> <Gold.PLP.Fitness>
42.4615

> <Gold.PLP.PLP>
-27.6101

> <Gold.PLP.part.hbond>
-2.0000

> <Gold.PLP.part.metal>
-1.0000

> <Gold.PLP.part.buried>
-4.9251

> <Gold.PLP.part.nonpolar>
-20.4524

> <Gold.PLP.part.repulsive>
0.2806

> <Gold.PLP.ligand.clash>
0.0000

> <Gold.PLP.ligand.torsion>
0.9711

> <Gold.PLP.Chemscore.Hbond>
2.9600

> <Gold.PLP.Chemscore.CHOScore>
0.0000

> <Gold.PLP.Chemscore.Metal>
1.0000

> <Gold.Chemscore.Hbonds>
donor molecule, donor type, donor heavy atom, donor atom, acceptor molecule, acceptor atom, score
      L1  H     4    12       P1   437  1.00
      L1  H     4    13       P1   426  1.00
      L1  H    11    19       P1   431  0.96
      P1  M  1222  1222       L1     4  1.00

> <Gold.PLP.Chemscore.Internal.Correction>
1.9135

> <Gold.Protein.RotatedTorsions>
[ 1849  621  620  617 ] final  -72.07 input   60.00 | X-H torsion

> <Gold.Protein.ActiveResidues>
 HIS54   GLU57   HIS58   ALA61   PHE62   ILE76   ILE77   ASP78   ILE79   SER80  
 PRO81   GLN125  CYS126  GLY127  GLN128  HIS132  CO701  

> <Gold.Protein.RotatedAtoms>
  -19.7173   27.9728  -13.8363 H   0  0  0  0  0  0  0  0  0  0  0  0  # atno 1849 bound_to 621 
  -18.1847   27.4478  -13.6826 LP  0  0  0  0  0  0  0  0  0  0  0  0  # atno 2431 bound_to 621 
  -18.6739   28.7905  -12.8925 LP  0  0  0  0  0  0  0  0  0  0  0  0  # atno 2432 bound_to 621 

$$$$
Compound 24|DecoysActives|sdf|31|dock3
  -GOLD-   6112412123D 1   1.00000     0.00000

 32 33  0  0  0  0  0  0  0  0  1 V2000
  -24.0995   35.9884  -17.0368 S   0  0  0  0  0  0  0  0  0  0  0  0
  -22.9574   35.1768  -16.6742 O   0  0  0  0  0  0  0  0  0  0  0  0
  -24.2715   36.4853  -18.3868 O   0  0  0  0  0  0  0  0  0  0  0  0
  -25.5307   35.1729  -16.5725 N   0  0  0  0  0  0  0  0  0  0  0  0
  -24.1782   37.3696  -15.9120 C   0  0  0  0  0  0  0  0  0  0  0  0
  -25.6298   33.8259  -17.0619 C   0  0  0  0  0  0  0  0  0  0  0  0
  -26.7666   35.9862  -16.6943 C   0  0  0  0  0  0  0  0  0  0  0  0
  -25.5124   38.0957  -16.0157 C   0  0  0  0  0  0  0  0  0  0  0  0
  -26.0711   33.6398  -18.3742 C   0  0  0  0  0  0  0  0  0  0  0  0
  -25.2424   32.7271  -16.2878 C   0  0  0  0  0  0  0  0  0  0  0  0
  -26.6973   37.1713  -15.7314 C   0  0  0  0  0  0  0  0  0  0  0  0
  -26.1518   32.3531  -18.9103 C   0  0  0  0  0  0  0  0  0  0  0  0
  -25.3207   31.4377  -16.8180 C   0  0  0  0  0  0  0  0  0  0  0  0
  -25.7867   31.2564  -18.1240 C   0  0  0  0  0  0  0  0  0  0  0  0
  -25.8578   29.6257  -18.8069 S   0  0  0  0  0  0  0  0  0  0  0  0
  -24.5147   29.1149  -18.9515 O   0  0  0  0  0  0  0  0  0  0  0  0
  -26.8128   29.6068  -19.8903 O   0  0  0  0  0  0  0  0  0  0  0  0
  -26.5569   28.7550  -17.5560 N   0  0  0  0  0  0  0  0  0  0  0  0
  -24.0131   36.9822  -14.9014 H   0  0  0  0  0  0  0  0  0  0  0  0
  -23.3513   38.0399  -16.1655 H   0  0  0  0  0  0  0  0  0  0  0  0
  -27.6374   35.3748  -16.4276 H   0  0  0  0  0  0  0  0  0  0  0  0
  -26.9101   36.3246  -17.7269 H   0  0  0  0  0  0  0  0  0  0  0  0
  -25.5254   38.9284  -15.3032 H   0  0  0  0  0  0  0  0  0  0  0  0
  -25.6247   38.5302  -17.0164 H   0  0  0  0  0  0  0  0  0  0  0  0
  -26.3611   34.4958  -18.9778 H   0  0  0  0  0  0  0  0  0  0  0  0
  -24.8844   32.8640  -15.2703 H   0  0  0  0  0  0  0  0  0  0  0  0
  -26.6291   36.8036  -14.6998 H   0  0  0  0  0  0  0  0  0  0  0  0
  -27.6269   37.7475  -15.8048 H   0  0  0  0  0  0  0  0  0  0  0  0
  -26.5000   32.2160  -19.9315 H   0  0  0  0  0  0  0  0  0  0  0  0
  -25.0213   30.5868  -16.2101 H   0  0  0  0  0  0  0  0  0  0  0  0
  -27.5736   28.7854  -17.6318 H   0  0  0  0  0  0  0  0  0  0  0  0
  -26.1975   29.0793  -16.6583 H   0  0  0  0  0  0  0  0  0  0  0  0
  1  2  2  0  0  0  0
  1  3  2  0  0  0  0
  1  4  1  0  0  0  0
  1  5  1  0  0  0  0
  4  6  1  0  0  0  0
  4  7  1  0  0  0  0
  5  8  1  0  0  0  0
  5 19  1  0  0  0  0
  5 20  1  0  0  0  0
  6  9  2  0  0  0  0
  6 10  1  0  0  0  0
  7 11  1  0  0  0  0
  7 21  1  0  0  0  0
  7 22  1  0  0  0  0
  8 11  1  0  0  0  0
  8 23  1  0  0  0  0
  8 24  1  0  0  0  0
  9 12  1  0  0  0  0
  9 25  1  0  0  0  0
 10 13  2  0  0  0  0
 10 26  1  0  0  0  0
 11 27  1  0  0  0  0
 11 28  1  0  0  0  0
 12 14  2  0  0  0  0
 12 29  1  0  0  0  0
 13 14  1  0  0  0  0
 13 30  1  0  0  0  0
 14 15  1  0  0  0  0
 15 16  2  0  0  0  0
 15 17  2  0  0  0  0
 15 18  1  0  0  0  0
 18 31  1  0  0  0  0
 18 32  1  0  0  0  0
M  END
>  <Column 1>
NS(=O)(=O)c1ccc(N2CCCCS2(=O)=O)cc1 ZINC000000002119

>  <Total Molweight>
290.363

>  <cLogP>
-0.4114

>  <cLogS>
-3.33

>  <H-Acceptors>
6

>  <H-Donors>
1

>  <Total Surface Area>
190.78

>  <MMFF94 Energy>
-93.378

> <Gold.Version>
5.8.1

> <Gold.Id.Protein>
ID|2FQT|mol2

> <Gold.PLP.Fitness>
58.8579

> <Gold.PLP.PLP>
-39.3050

> <Gold.PLP.part.hbond>
-2.0000

> <Gold.PLP.part.metal>
-2.0000

> <Gold.PLP.part.buried>
-1.9630

> <Gold.PLP.part.nonpolar>
-33.5449

> <Gold.PLP.part.repulsive>
0.1002

> <Gold.PLP.ligand.clash>
0.0000

> <Gold.PLP.ligand.torsion>
1.5061

> <Gold.PLP.Chemscore.Hbond>
2.8705

> <Gold.PLP.Chemscore.CHOScore>
0.0000

> <Gold.PLP.Chemscore.Metal>
1.9644

> <Gold.Chemscore.Hbonds>
donor molecule, donor type, donor heavy atom, donor atom, acceptor molecule, acceptor atom, score
      L1  H    18    31       P1   403  0.94
      L1  H    18    32       P1   426  0.93
      P1  H   966  2177       L1    17  1.00
      P1  M  1222  1222       L1    17  0.97
      P1  M  1222  1222       L1    18  1.00

> <Gold.PLP.Chemscore.Internal.Correction>
2.1671

> <Gold.Protein.RotatedTorsions>
[ 1849  621  620  617 ] final  -40.55 input   60.00 | X-H torsion

> <Gold.Protein.ActiveResidues>
 HIS54   GLU57   HIS58   ALA61   PHE62   ILE76   ILE77   ASP78   ILE79   SER80  
 PRO81   GLN125  CYS126  GLY127  GLN128  HIS132  CO701  

> <Gold.Protein.RotatedAtoms>
  -19.7376   28.3895  -13.5455 H   0  0  0  0  0  0  0  0  0  0  0  0  # atno 1849 bound_to 621 
  -18.6009   27.2930  -13.9378 LP  0  0  0  0  0  0  0  0  0  0  0  0  # atno 2431 bound_to 621 
  -18.2372   28.5256  -12.9303 LP  0  0  0  0  0  0  0  0  0  0  0  0  # atno 2432 bound_to 621 

$$$$
Compound 25|DecoysActives|sdf|32|dock2
  -GOLD-   6112412123D 1   1.00000     0.00000

 24 25  0  0  0  0  0  0  0  0  3 V2000
  -23.2526   36.6152  -16.1562 S   0  0  0  0  0  0  0  0  0  0  0  0
  -24.9005   36.5090  -16.2831 C   0  0  0  0  0  0  0  0  0  0  0  0
  -25.7129   35.3946  -16.5616 N   0  0  0  0  0  0  0  0  0  0  0  0
  -25.7321   37.6096  -16.1126 N   0  0  0  0  0  0  0  0  0  0  0  0
  -25.1804   34.1552  -16.7796 N   0  0  0  0  0  0  0  0  0  0  0  0
  -27.1115   35.7661  -16.5754 C   0  0  0  0  0  0  0  0  0  0  0  0
  -27.1155   37.2621  -16.2717 C   0  0  0  0  0  0  0  0  0  0  0  0
  -25.9323   33.2155  -17.2478 C   0  0  0  0  0  0  0  0  0  0  0  0
  -25.4157   31.8940  -17.4936 C   0  0  0  0  0  0  0  0  0  0  0  0
  -26.1949   30.9741  -18.1468 O   0  0  0  0  0  0  0  0  0  0  0  0
  -24.1928   31.3250  -17.1760 C   0  0  0  0  0  0  0  0  0  0  0  0
  -25.4577   29.8370  -18.2345 C   0  0  0  0  0  0  0  0  0  0  0  0
  -24.2200   29.9904  -17.6567 C   0  0  0  0  0  0  0  0  0  0  0  0
  -26.0672   28.7199  -18.8852 N   0  3  0  0  0  0  0  0  0  0  0  0
  -27.0801   28.9194  -19.5650 O   0  0  0  0  0  0  0  0  0  0  0  0
  -25.5168   27.6235  -18.7086 O   0  5  0  0  0  0  0  0  0  0  0  0
  -25.3603   38.5283  -15.9021 H   0  0  0  0  0  0  0  0  0  0  0  0
  -27.5393   35.5589  -17.5612 H   0  0  0  0  0  0  0  0  0  0  0  0
  -27.6512   35.2026  -15.8080 H   0  0  0  0  0  0  0  0  0  0  0  0
  -27.6507   37.4949  -15.3467 H   0  0  0  0  0  0  0  0  0  0  0  0
  -27.5392   37.8495  -17.0912 H   0  0  0  0  0  0  0  0  0  0  0  0
  -26.9987   33.3651  -17.4842 H   0  0  0  0  0  0  0  0  0  0  0  0
  -23.3783   31.8150  -16.6591 H   0  0  0  0  0  0  0  0  0  0  0  0
  -23.4437   29.2398  -17.5919 H   0  0  0  0  0  0  0  0  0  0  0  0
  1  2  2  0  0  0  0
  2  3  1  0  0  0  0
  2  4  1  0  0  0  0
  3  5  1  0  0  0  0
  3  6  1  0  0  0  0
  4  7  1  0  0  0  0
  4 17  1  0  0  0  0
  5  8  2  0  0  0  0
  6  7  1  0  0  0  0
  6 18  1  0  0  0  0
  6 19  1  0  0  0  0
  7 20  1  0  0  0  0
  7 21  1  0  0  0  0
  8  9  1  0  0  0  0
  8 22  1  0  0  0  0
  9 10  1  0  0  0  0
  9 11  2  0  0  0  0
 10 12  1  0  0  0  0
 11 13  1  0  0  0  0
 11 23  1  0  0  0  0
 12 14  1  0  0  0  0
 12 13  2  0  0  0  0
 13 24  1  0  0  0  0
 14 15  2  0  0  0  0
 14 16  1  0  0  0  0
M  CHG  1  14   1
M  CHG  1  16  -1
M  END
>  <Column 1>
O=[N+]([O-])c1ccc(C=NN2CCNC2=S)o1 ZINC000000002156

>  <Total Molweight>
240.243

>  <cLogP>
0.3405

>  <cLogS>
-3.122

>  <H-Acceptors>
6

>  <H-Donors>
1

>  <Total Surface Area>
179.87

>  <MMFF94 Energy>
86.608

> <Gold.Version>
5.8.1

> <Gold.Id.Protein>
ID|2FQT|mol2

> <Gold.PLP.Fitness>
47.6022

> <Gold.PLP.PLP>
-34.2511

> <Gold.PLP.part.hbond>
-1.0000

> <Gold.PLP.part.metal>
-1.4802

> <Gold.PLP.part.buried>
-2.4565

> <Gold.PLP.part.nonpolar>
-29.1561

> <Gold.PLP.part.repulsive>
0.1690

> <Gold.PLP.ligand.clash>
0.0000

> <Gold.PLP.ligand.torsion>
0.1442

> <Gold.PLP.Chemscore.Hbond>
1.0000

> <Gold.PLP.Chemscore.CHOScore>
0.0000

> <Gold.PLP.Chemscore.Metal>
1.7716

> <Gold.Chemscore.Hbonds>
donor molecule, donor type, donor heavy atom, donor atom, acceptor molecule, acceptor atom, score
      P1  H   966  2177       L1    15  1.00
      P1  M  1222  1222       L1    10  0.77
      P1  M  1222  1222       L1    15  1.00

> <Gold.PLP.Chemscore.Internal.Correction>
0.0096

> <Gold.Protein.RotatedTorsions>
[ 1849  621  620  617 ] final  116.67 input   60.00 | X-H torsion

> <Gold.Protein.ActiveResidues>
 HIS54   GLU57   HIS58   ALA61   PHE62   ILE76   ILE77   ASP78   ILE79   SER80  
 PRO81   GLN125  CYS126  GLY127  GLN128  HIS132  CO701  

> <Gold.Protein.RotatedAtoms>
  -17.9722   28.0477  -13.1770 H   0  0  0  0  0  0  0  0  0  0  0  0  # atno 1849 bound_to 621 
  -19.4364   28.7578  -13.1806 LP  0  0  0  0  0  0  0  0  0  0  0  0  # atno 2431 bound_to 621 
  -19.1796   27.4051  -14.0586 LP  0  0  0  0  0  0  0  0  0  0  0  0  # atno 2432 bound_to 621 

$$$$
Compound 26|DecoysActives|sdf|33|dock2
  -GOLD-   6112412123D 1   1.00000     0.00000

 31 33  0  0  0  0  0  0  0  0  1 V2000
  -26.2696   34.2325  -17.9606 N   0  0  0  0  0  0  0  0  0  0  0  0
  -25.9082   32.9482  -18.2100 N   0  0  0  0  0  0  0  0  0  0  0  0
  -25.7852   34.7289  -16.8483 C   0  0  0  0  0  0  0  0  0  0  0  0
  -25.1176   32.1213  -17.4469 C   0  0  0  0  0  0  0  0  0  0  0  0
  -26.2537   32.2009  -19.2995 C   0  0  0  0  0  0  0  0  0  0  0  0
  -26.0894   36.0489  -16.5270 N   0  0  0  0  0  0  0  0  0  0  0  0
  -24.9375   33.8968  -15.9170 C   0  0  0  0  0  0  0  0  0  0  0  0
  -24.9956   30.9531  -18.0443 N   0  0  0  0  0  0  0  0  0  0  0  0
  -24.6147   32.6261  -16.2215 C   0  0  0  0  0  0  0  0  0  0  0  0
  -25.7157   31.0041  -19.2193 N   0  0  0  0  0  0  0  0  0  0  0  0
  -25.1701   36.8452  -15.7006 C   0  0  0  0  0  0  0  0  0  0  0  0
  -27.4415   36.6060  -16.6203 C   0  0  0  0  0  0  0  0  0  0  0  0
  -23.7798   31.8014  -15.2800 C   0  0  0  0  0  0  0  0  0  0  0  0
  -25.0854   38.2743  -16.2362 C   0  0  0  0  0  0  0  0  0  0  0  0
  -27.3899   38.0202  -17.1911 C   0  0  0  0  0  0  0  0  0  0  0  0
  -26.4657   38.9101  -16.3655 C   0  0  0  0  0  0  0  0  0  0  0  0
  -26.8795   32.5795  -20.0920 H   0  0  0  0  0  0  0  0  0  0  0  0
  -24.6334   34.3440  -14.9804 H   0  0  0  0  0  0  0  0  0  0  0  0
  -24.1567   36.4277  -15.7056 H   0  0  0  0  0  0  0  0  0  0  0  0
  -25.5194   36.8442  -14.6610 H   0  0  0  0  0  0  0  0  0  0  0  0
  -27.8899   36.6216  -15.6188 H   0  0  0  0  0  0  0  0  0  0  0  0
  -28.1061   35.9991  -17.2410 H   0  0  0  0  0  0  0  0  0  0  0  0
  -24.3349   30.9131  -14.9605 H   0  0  0  0  0  0  0  0  0  0  0  0
  -22.8606   31.4745  -15.7771 H   0  0  0  0  0  0  0  0  0  0  0  0
  -23.4938   32.3582  -14.3812 H   0  0  0  0  0  0  0  0  0  0  0  0
  -24.6015   38.2643  -17.2211 H   0  0  0  0  0  0  0  0  0  0  0  0
  -24.4569   38.8816  -15.5752 H   0  0  0  0  0  0  0  0  0  0  0  0
  -27.0312   37.9851  -18.2273 H   0  0  0  0  0  0  0  0  0  0  0  0
  -28.3973   38.4504  -17.2109 H   0  0  0  0  0  0  0  0  0  0  0  0
  -26.8953   39.0622  -15.3678 H   0  0  0  0  0  0  0  0  0  0  0  0
  -26.3803   39.8968  -16.8341 H   0  0  0  0  0  0  0  0  0  0  0  0
  1  2  1  0  0  0  0
  1  3  2  0  0  0  0
  2  4  1  0  0  0  0
  2  5  1  0  0  0  0
  3  6  1  0  0  0  0
  3  7  1  0  0  0  0
  4  8  2  0  0  0  0
  4  9  1  0  0  0  0
  5 10  2  0  0  0  0
  5 17  1  0  0  0  0
  6 11  1  0  0  0  0
  6 12  1  0  0  0  0
  7  9  2  0  0  0  0
  7 18  1  0  0  0  0
  8 10  1  0  0  0  0
  9 13  1  0  0  0  0
 11 14  1  0  0  0  0
 11 19  1  0  0  0  0
 11 20  1  0  0  0  0
 12 15  1  0  0  0  0
 12 21  1  0  0  0  0
 12 22  1  0  0  0  0
 13 23  1  0  0  0  0
 13 24  1  0  0  0  0
 13 25  1  0  0  0  0
 14 16  1  0  0  0  0
 14 26  1  0  0  0  0
 14 27  1  0  0  0  0
 15 16  1  0  0  0  0
 15 28  1  0  0  0  0
 15 29  1  0  0  0  0
 16 30  1  0  0  0  0
 16 31  1  0  0  0  0
M  END
>  <Column 1>
Cc1cc(N2CCCCC2)nn2cnnc12 ZINC000000002256

>  <Total Molweight>
217.275

>  <cLogP>
0.7003

>  <cLogS>
-3.434

>  <H-Acceptors>
5

>  <H-Donors>
0

>  <Total Surface Area>
172.65

>  <MMFF94 Energy>
-7.5303

> <Gold.Version>
5.8.1

> <Gold.Id.Protein>
ID|2FQT|mol2

> <Gold.PLP.Fitness>
44.2185

> <Gold.PLP.PLP>
-42.2628

> <Gold.PLP.part.hbond>
0.0000

> <Gold.PLP.part.metal>
0.0000

> <Gold.PLP.part.buried>
-4.8719

> <Gold.PLP.part.nonpolar>
-37.9702

> <Gold.PLP.part.repulsive>
0.1401

> <Gold.PLP.ligand.clash>
0.0000

> <Gold.PLP.ligand.torsion>
0.5612

> <Gold.PLP.Chemscore.Hbond>
0.0000

> <Gold.PLP.Chemscore.CHOScore>
1.0000

> <Gold.PLP.Chemscore.Metal>
0.0000

> <Gold.Chemscore.Hbonds>
donor molecule, donor type, donor heavy atom, donor atom, acceptor molecule, acceptor atom, score
      L1  C     5    17       P1   954  1.00

> <Gold.PLP.Chemscore.Internal.Correction>
0.0782

> <Gold.Protein.RotatedTorsions>
[ 1849  621  620  617 ] final -170.18 input   60.00 | X-H torsion

> <Gold.Protein.ActiveResidues>
 HIS54   GLU57   HIS58   ALA61   PHE62   ILE76   ILE77   ASP78   ILE79   SER80  
 PRO81   GLN125  CYS126  GLY127  GLN128  HIS132  CO701  

> <Gold.Protein.RotatedAtoms>
  -18.4625   27.3208  -13.8669 H   0  0  0  0  0  0  0  0  0  0  0  0  # atno 1849 bound_to 621 
  -18.3564   28.6255  -12.9002 LP  0  0  0  0  0  0  0  0  0  0  0  0  # atno 2431 bound_to 621 
  -19.7658   28.2694  -13.6441 LP  0  0  0  0  0  0  0  0  0  0  0  0  # atno 2432 bound_to 621 

$$$$
Compound 27|DecoysActives|sdf|34|dock2
  -GOLD-   6112412123D 1   1.00000     0.00000

 21 23  0  0  0  0  0  0  0  0  1 V2000
  -26.4831   31.0880  -19.0129 O   0  0  0  0  0  0  0  0  0  0  0  0
  -26.2750   32.1798  -18.5121 C   0  0  0  0  0  0  0  0  0  0  0  0
  -25.5791   32.4697  -17.3244 N   0  0  0  0  0  0  0  0  0  0  0  0
  -26.7014   33.4086  -19.0362 N   0  0  0  0  0  0  0  0  0  0  0  0
  -25.5738   33.8587  -17.1145 C   0  0  0  0  0  0  0  0  0  0  0  0
  -24.9695   31.4983  -16.4615 C   0  0  0  0  0  0  0  0  0  0  0  0
  -26.2850   34.4435  -18.2007 C   0  0  0  0  0  0  0  0  0  0  0  0
  -24.9992   34.5691  -16.0655 C   0  0  0  0  0  0  0  0  0  0  0  0
  -26.5169   35.8003  -18.3858 C   0  0  0  0  0  0  0  0  0  0  0  0
  -25.2066   35.9551  -16.2063 C   0  0  0  0  0  0  0  0  0  0  0  0
  -25.9504   36.5582  -17.3435 C   0  0  0  0  0  0  0  0  0  0  0  0
  -24.8055   36.9523  -15.4015 N   0  0  0  0  0  0  0  0  0  0  0  0
  -25.9612   37.8895  -17.1683 N   0  0  0  0  0  0  0  0  0  0  0  0
  -25.2801   38.0364  -16.0259 N   0  0  0  0  0  0  0  0  0  0  0  0
  -27.2279   33.4890  -19.8912 H   0  0  0  0  0  0  0  0  0  0  0  0
  -25.4215   31.5628  -15.4674 H   0  0  0  0  0  0  0  0  0  0  0  0
  -25.1207   30.4897  -16.8565 H   0  0  0  0  0  0  0  0  0  0  0  0
  -23.8959   31.6972  -16.3941 H   0  0  0  0  0  0  0  0  0  0  0  0
  -24.4598   34.1315  -15.2408 H   0  0  0  0  0  0  0  0  0  0  0  0
  -27.0575   36.2303  -19.2135 H   0  0  0  0  0  0  0  0  0  0  0  0
  -25.1249   38.9631  -15.6359 H   0  0  0  0  0  0  0  0  0  0  0  0
  1  2  2  0  0  0  0
  2  3  1  0  0  0  0
  2  4  1  0  0  0  0
  3  5  1  0  0  0  0
  3  6  1  0  0  0  0
  4  7  1  0  0  0  0
  4 15  1  0  0  0  0
  5  8  2  0  0  0  0
  5  7  1  0  0  0  0
  6 16  1  0  0  0  0
  6 17  1  0  0  0  0
  6 18  1  0  0  0  0
  7  9  2  0  0  0  0
  8 10  1  0  0  0  0
  8 19  1  0  0  0  0
  9 11  1  0  0  0  0
  9 20  1  0  0  0  0
 10 12  2  0  0  0  0
 10 11  1  0  0  0  0
 11 13  2  0  0  0  0
 12 14  1  0  0  0  0
 13 14  1  0  0  0  0
 14 21  1  0  0  0  0
M  END
>  <Column 1>
Cn1c(=O)[nH]c2cc3n[nH]nc3cc21 ZINC000000002428

>  <Total Molweight>
189.178

>  <cLogP>
-0.1118

>  <cLogS>
-2.492

>  <H-Acceptors>
6

>  <H-Donors>
2

>  <Total Surface Area>
133.22

>  <MMFF94 Energy>
-17.803

> <Gold.Version>
5.8.1

> <Gold.Id.Protein>
ID|2FQT|mol2

> <Gold.PLP.Fitness>
32.8545

> <Gold.PLP.PLP>
-24.4765

> <Gold.PLP.part.hbond>
-1.1244

> <Gold.PLP.part.metal>
-0.8008

> <Gold.PLP.part.buried>
-5.2293

> <Gold.PLP.part.nonpolar>
-17.1909

> <Gold.PLP.part.repulsive>
0.3409

> <Gold.PLP.ligand.clash>
0.0000

> <Gold.PLP.ligand.torsion>
0.0000

> <Gold.PLP.Chemscore.Hbond>
1.0000

> <Gold.PLP.Chemscore.CHOScore>
0.0000

> <Gold.PLP.Chemscore.Metal>
0.8963

> <Gold.Chemscore.Hbonds>
donor molecule, donor type, donor heavy atom, donor atom, acceptor molecule, acceptor atom, score
      L1  H     4    15       P1   954  1.00
      P1  M  1222  1222       L1     1  0.90

> <Gold.PLP.Chemscore.Internal.Correction>
0.0000

> <Gold.Protein.RotatedTorsions>
[ 1849  621  620  617 ] final  122.85 input   60.00 | X-H torsion

> <Gold.Protein.ActiveResidues>
 HIS54   GLU57   HIS58   ALA61   PHE62   ILE76   ILE77   ASP78   ILE79   SER80  
 PRO81   GLN125  CYS126  GLY127  GLN128  HIS132  CO701  

> <Gold.Protein.RotatedAtoms>
  -17.9615   27.9643  -13.2329 H   0  0  0  0  0  0  0  0  0  0  0  0  # atno 1849 bound_to 621 
  -19.3575   28.7938  -13.1274 LP  0  0  0  0  0  0  0  0  0  0  0  0  # atno 2431 bound_to 621 
  -19.2693   27.4530  -14.0554 LP  0  0  0  0  0  0  0  0  0  0  0  0  # atno 2432 bound_to 621 

$$$$
Compound 28|DecoysActives|sdf|35|dock5
  -GOLD-   6112412123D 1   1.00000     0.00000

 25 27  0  0  0  0  0  0  0  0  1 V2000
  -21.1321   34.4891  -17.1338 O   0  0  0  0  0  0  0  0  0  0  0  0
  -22.3497   34.5293  -16.9959 C   0  0  0  0  0  0  0  0  0  0  0  0
  -22.9657   35.5440  -16.3324 N   0  0  0  0  0  0  0  0  0  0  0  0
  -23.1466   33.5816  -17.5441 N   0  0  0  0  0  0  0  0  0  0  0  0
  -24.3502   35.7080  -16.2632 C   0  0  0  0  0  0  0  0  0  0  0  0
  -24.5075   33.3945  -17.1435 C   0  0  1  0  0  0  0  0  0  0  0  0
  -25.1765   34.6740  -16.7130 C   0  0  0  0  0  0  0  0  0  0  0  0
  -24.8863   36.8968  -15.7703 C   0  0  0  0  0  0  0  0  0  0  0  0
  -25.2098   32.7110  -18.1879 N   0  0  0  0  0  0  0  0  0  0  0  0
  -24.5916   32.3065  -16.0252 C   0  0  0  0  0  0  0  0  0  0  0  0
  -26.5683   34.8507  -16.6640 C   0  0  0  0  0  0  0  0  0  0  0  0
  -26.2702   37.0631  -15.7317 C   0  0  0  0  0  0  0  0  0  0  0  0
  -25.6623   31.4769  -17.8029 C   0  0  0  0  0  0  0  0  0  0  0  0
  -24.0987   32.3396  -14.9067 O   0  0  0  0  0  0  0  0  0  0  0  0
  -25.2897   31.2458  -16.5247 N   0  0  0  0  0  0  0  0  0  0  0  0
  -27.1096   36.0436  -16.1800 C   0  0  0  0  0  0  0  0  0  0  0  0
  -26.3008   30.7194  -18.5103 O   0  0  0  0  0  0  0  0  0  0  0  0
  -22.3485   36.2477  -15.9482 H   0  0  0  0  0  0  0  0  0  0  0  0
  -22.6656   32.8404  -18.0295 H   0  0  0  0  0  0  0  0  0  0  0  0
  -24.2419   37.6990  -15.4222 H   0  0  0  0  0  0  0  0  0  0  0  0
  -25.3808   33.0903  -19.1069 H   0  0  0  0  0  0  0  0  0  0  0  0
  -27.2447   34.0635  -16.9905 H   0  0  0  0  0  0  0  0  0  0  0  0
  -26.6955   37.9885  -15.3509 H   0  0  0  0  0  0  0  0  0  0  0  0
  -25.4892   30.4007  -16.0177 H   0  0  0  0  0  0  0  0  0  0  0  0
  -28.1887   36.1758  -16.1441 H   0  0  0  0  0  0  0  0  0  0  0  0
  1  2  2  0  0  0  0
  2  3  1  0  0  0  0
  2  4  1  0  0  0  0
  3  5  1  0  0  0  0
  3 18  1  0  0  0  0
  4  6  1  0  0  0  0
  4 19  1  0  0  0  0
  5  7  2  0  0  0  0
  5  8  1  0  0  0  0
  6  9  1  0  0  0  0
  6 10  1  0  0  0  0
  6  7  1  0  0  0  0
  7 11  1  0  0  0  0
  8 12  2  0  0  0  0
  8 20  1  0  0  0  0
  9 13  1  0  0  0  0
  9 21  1  0  0  0  0
 10 14  2  0  0  0  0
 10 15  1  0  0  0  0
 11 16  2  0  0  0  0
 11 22  1  0  0  0  0
 12 16  1  0  0  0  0
 12 23  1  0  0  0  0
 13 17  2  0  0  0  0
 13 15  1  0  0  0  0
 15 24  1  0  0  0  0
 16 25  1  0  0  0  0
M  END
>  <Column 1>
O=C1NC(=O)[C@]2(N1)NC(=O)Nc1ccccc12 ZINC000000002762

>  <Total Molweight>
232.199

>  <cLogP>
-0.4152

>  <cLogS>
-1.946

>  <H-Acceptors>
7

>  <H-Donors>
4

>  <Total Surface Area>
155.76

>  <MMFF94 Energy>
-164.99

> <Gold.Version>
5.8.1

> <Gold.Id.Protein>
ID|2FQT|mol2

> <Gold.PLP.Fitness>
39.6563

> <Gold.PLP.PLP>
-32.6646

> <Gold.PLP.part.hbond>
-0.5561

> <Gold.PLP.part.metal>
-1.0000

> <Gold.PLP.part.buried>
-4.0638

> <Gold.PLP.part.nonpolar>
-28.1166

> <Gold.PLP.part.repulsive>
0.3397

> <Gold.PLP.ligand.clash>
0.0000

> <Gold.PLP.ligand.torsion>
0.0000

> <Gold.PLP.Chemscore.Hbond>
0.3575

> <Gold.PLP.Chemscore.CHOScore>
0.0000

> <Gold.PLP.Chemscore.Metal>
0.9865

> <Gold.Chemscore.Hbonds>
donor molecule, donor type, donor heavy atom, donor atom, acceptor molecule, acceptor atom, score
      L1  H    15    24       P1   426  0.36
      P1  M  1222  1222       L1    17  0.99

> <Gold.PLP.Chemscore.Internal.Correction>
0.0000

> <Gold.Protein.RotatedTorsions>
[ 1849  621  620  617 ] final  -93.68 input   60.00 | X-H torsion

> <Gold.Protein.ActiveResidues>
 HIS54   GLU57   HIS58   ALA61   PHE62   ILE76   ILE77   ASP78   ILE79   SER80  
 PRO81   GLN125  CYS126  GLY127  GLN128  HIS132  CO701  

> <Gold.Protein.RotatedAtoms>
  -19.5538   27.6960  -13.9774 H   0  0  0  0  0  0  0  0  0  0  0  0  # atno 1849 bound_to 621 
  -18.0092   27.6653  -13.4662 LP  0  0  0  0  0  0  0  0  0  0  0  0  # atno 2431 bound_to 621 
  -19.0141   28.8517  -12.9668 LP  0  0  0  0  0  0  0  0  0  0  0  0  # atno 2432 bound_to 621 

$$$$
Compound 29|DecoysActives|sdf|36|dock1
  -GOLD-   6112412123D 1   1.00000     0.00000

 17 18  0  0  0  0  0  0  0  0  1 V2000
  -26.6358   31.0005  -19.2675 N   0  0  0  0  0  0  0  0  0  0  0  0
  -26.2064   31.9102  -18.6896 C   0  0  0  0  0  0  0  0  0  0  0  0
  -25.6910   33.0297  -17.9575 C   0  0  2  0  0  0  0  0  0  0  0  0
  -26.2414   34.4046  -18.2582 C   0  0  2  0  0  0  0  0  0  0  0  0
  -24.8379   34.0495  -18.6694 C   0  0  0  0  0  0  0  0  0  0  0  0
  -26.4430   35.3899  -17.0858 C   0  0  0  0  0  0  0  0  0  0  0  0
  -27.0996   36.5830  -17.2030 N   0  0  0  0  0  0  0  0  0  0  0  0
  -25.9991   35.1855  -15.8028 C   0  0  0  0  0  0  0  0  0  0  0  0
  -27.0545   37.1129  -16.0019 C   0  0  0  0  0  0  0  0  0  0  0  0
  -26.3971   36.3017  -15.1191 N   0  0  0  0  0  0  0  0  0  0  0  0
  -25.4318   32.8146  -16.9253 H   0  0  0  0  0  0  0  0  0  0  0  0
  -26.9855   34.4880  -19.0440 H   0  0  0  0  0  0  0  0  0  0  0  0
  -24.6400   33.9208  -19.7275 H   0  0  0  0  0  0  0  0  0  0  0  0
  -24.0122   34.4840  -18.1168 H   0  0  0  0  0  0  0  0  0  0  0  0
  -25.4555   34.3792  -15.3322 H   0  0  0  0  0  0  0  0  0  0  0  0
  -27.4737   38.0675  -15.7128 H   0  0  0  0  0  0  0  0  0  0  0  0
  -26.2376   36.4984  -14.1405 H   0  0  0  0  0  0  0  0  0  0  0  0
  1  2  3  0  0  0  0
  2  3  1  0  0  0  0
  3  4  1  0  0  0  0
  3  5  1  0  0  0  0
  3 11  1  0  0  0  0
  4  6  1  0  0  0  0
  4  5  1  0  0  0  0
  4 12  1  0  0  0  0
  5 13  1  0  0  0  0
  5 14  1  0  0  0  0
  6  7  1  0  0  0  0
  6  8  2  0  0  0  0
  7  9  2  0  0  0  0
  8 10  1  0  0  0  0
  8 15  1  0  0  0  0
  9 10  1  0  0  0  0
  9 16  1  0  0  0  0
 10 17  1  0  0  0  0
M  END
>  <Column 1>
N#C[C@H]1C[C@@H]1c1c[nH]cn1 ZINC000000003017

>  <Total Molweight>
133.154

>  <cLogP>
0.4995

>  <cLogS>
-1.72

>  <H-Acceptors>
3

>  <H-Donors>
1

>  <Total Surface Area>
108.56

>  <MMFF94 Energy>
-2.7622

> <Gold.Version>
5.8.1

> <Gold.Id.Protein>
ID|2FQT|mol2

> <Gold.PLP.Fitness>
31.7027

> <Gold.PLP.PLP>
-23.7953

> <Gold.PLP.part.hbond>
-1.0000

> <Gold.PLP.part.metal>
-1.0000

> <Gold.PLP.part.buried>
-2.9861

> <Gold.PLP.part.nonpolar>
-19.0953

> <Gold.PLP.part.repulsive>
0.2607

> <Gold.PLP.ligand.clash>
0.0000

> <Gold.PLP.ligand.torsion>
0.0790

> <Gold.PLP.Chemscore.Hbond>
0.7200

> <Gold.PLP.Chemscore.CHOScore>
0.0000

> <Gold.PLP.Chemscore.Metal>
0.9693

> <Gold.Chemscore.Hbonds>
donor molecule, donor type, donor heavy atom, donor atom, acceptor molecule, acceptor atom, score
      L1  H    10    17       P1   431  0.72
      P1  M  1222  1222       L1     1  0.97

> <Gold.PLP.Chemscore.Internal.Correction>
0.0894

> <Gold.Protein.RotatedTorsions>
[ 1849  621  620  617 ] final  140.58 input   60.00 | X-H torsion

> <Gold.Protein.ActiveResidues>
 HIS54   GLU57   HIS58   ALA61   PHE62   ILE76   ILE77   ASP78   ILE79   SER80  
 PRO81   GLN125  CYS126  GLY127  GLN128  HIS132  CO701  

> <Gold.Protein.RotatedAtoms>
  -17.9888   27.7353  -13.4061 H   0  0  0  0  0  0  0  0  0  0  0  0  # atno 1849 bound_to 621 
  -19.1028   28.8495  -12.9993 LP  0  0  0  0  0  0  0  0  0  0  0  0  # atno 2431 bound_to 621 
  -19.4964   27.6280  -14.0091 LP  0  0  0  0  0  0  0  0  0  0  0  0  # atno 2432 bound_to 621 

$$$$
Compound 30|DecoysActives|sdf|37|dock3
  -GOLD-   6112412123D 1   1.00000     0.00000

 16 16  0  0  0  0  0  0  0  0  1 V2000
  -25.2024   34.1280  -15.6941 N   0  0  0  0  0  0  0  0  0  0  0  0
  -25.3767   33.3858  -16.8139 C   0  0  0  0  0  0  0  0  0  0  0  0
  -25.8691   35.3062  -15.6605 C   0  0  0  0  0  0  0  0  0  0  0  0
  -26.1924   33.8244  -17.8509 C   0  0  0  0  0  0  0  0  0  0  0  0
  -24.6642   32.0740  -16.9064 C   0  0  0  0  0  0  0  0  0  0  0  0
  -26.6849   35.7447  -16.6974 C   0  0  0  0  0  0  0  0  0  0  0  0
  -26.8591   35.0025  -17.8172 N   0  0  0  0  0  0  0  0  0  0  0  0
  -27.3973   37.0565  -16.6049 C   0  0  0  0  0  0  0  0  0  0  0  0
  -25.7256   35.8960  -14.7615 H   0  0  0  0  0  0  0  0  0  0  0  0
  -26.3359   33.2345  -18.7498 H   0  0  0  0  0  0  0  0  0  0  0  0
  -23.9885   32.0696  -17.7674 H   0  0  0  0  0  0  0  0  0  0  0  0
  -25.3856   31.2576  -17.0116 H   0  0  0  0  0  0  0  0  0  0  0  0
  -24.0696   31.8892  -16.0059 H   0  0  0  0  0  0  0  0  0  0  0  0
  -27.9917   37.2412  -17.5054 H   0  0  0  0  0  0  0  0  0  0  0  0
  -26.6759   37.8727  -16.4996 H   0  0  0  0  0  0  0  0  0  0  0  0
  -28.0730   37.0606  -15.7441 H   0  0  0  0  0  0  0  0  0  0  0  0
  1  2  2  0  0  0  0
  1  3  1  0  0  0  0
  2  4  1  0  0  0  0
  2  5  1  0  0  0  0
  3  6  2  0  0  0  0
  3  9  1  0  0  0  0
  4  7  2  0  0  0  0
  4 10  1  0  0  0  0
  5 11  1  0  0  0  0
  5 12  1  0  0  0  0
  5 13  1  0  0  0  0
  6  8  1  0  0  0  0
  6  7  1  0  0  0  0
  8 14  1  0  0  0  0
  8 15  1  0  0  0  0
  8 16  1  0  0  0  0
M  END
>  <Column 1>
Cc1cnc(C)cn1 ZINC000000003182

>  <Total Molweight>
108.144

>  <cLogP>
0.4536

>  <cLogS>
-0.762

>  <H-Acceptors>
2

>  <H-Donors>
0

>  <Total Surface Area>
95.3

>  <MMFF94 Energy>
55.643

> <Gold.Version>
5.8.1

> <Gold.Id.Protein>
ID|2FQT|mol2

> <Gold.PLP.Fitness>
27.5345

> <Gold.PLP.PLP>
-24.5345

> <Gold.PLP.part.hbond>
0.0000

> <Gold.PLP.part.metal>
0.0000

> <Gold.PLP.part.buried>
-3.1900

> <Gold.PLP.part.nonpolar>
-21.1682

> <Gold.PLP.part.repulsive>
0.1657

> <Gold.PLP.ligand.clash>
0.0000

> <Gold.PLP.ligand.torsion>
0.0000

> <Gold.PLP.Chemscore.Hbond>
0.0000

> <Gold.PLP.Chemscore.CHOScore>
1.0000

> <Gold.PLP.Chemscore.Metal>
0.0000

> <Gold.Chemscore.Hbonds>
donor molecule, donor type, donor heavy atom, donor atom, acceptor molecule, acceptor atom, score
      L1  C     3     9       P1   431  1.00

> <Gold.PLP.Chemscore.Internal.Correction>
0.0000

> <Gold.Protein.RotatedTorsions>
[ 1849  621  620  617 ] final -168.02 input   60.00 | X-H torsion

> <Gold.Protein.ActiveResidues>
 HIS54   GLU57   HIS58   ALA61   PHE62   ILE76   ILE77   ASP78   ILE79   SER80  
 PRO81   GLN125  CYS126  GLY127  GLN128  HIS132  CO701  

> <Gold.Protein.RotatedAtoms>
  -18.4933   27.3136  -13.8828 H   0  0  0  0  0  0  0  0  0  0  0  0  # atno 1849 bound_to 621 
  -18.3282   28.6043  -12.9056 LP  0  0  0  0  0  0  0  0  0  0  0  0  # atno 2431 bound_to 621 
  -19.7629   28.2978  -13.6228 LP  0  0  0  0  0  0  0  0  0  0  0  0  # atno 2432 bound_to 621 

$$$$
Compound 31|DecoysActives|sdf|38|dock2
  -GOLD-   6112412123D 1   1.00000     0.00000

 16 16  0  0  0  0  0  0  0  0  1 V2000
  -26.3518   34.5875  -17.9472 N   0  0  0  0  0  0  0  0  0  0  0  0
  -25.8352   34.2933  -16.7247 C   0  0  0  0  0  0  0  0  0  0  0  0
  -26.3164   33.5941  -18.8613 C   0  0  0  0  0  0  0  0  0  0  0  0
  -25.2993   33.0305  -16.4389 C   0  0  0  0  0  0  0  0  0  0  0  0
  -25.8704   35.3900  -15.7042 C   0  0  0  0  0  0  0  0  0  0  0  0
  -25.7884   32.3498  -18.5798 C   0  0  0  0  0  0  0  0  0  0  0  0
  -25.2713   32.0413  -17.3708 N   0  0  0  0  0  0  0  0  0  0  0  0
  -24.7276   32.6967  -15.0945 C   0  0  0  0  0  0  0  0  0  0  0  0
  -26.7282   33.8289  -19.8358 H   0  0  0  0  0  0  0  0  0  0  0  0
  -26.4637   35.0862  -14.8364 H   0  0  0  0  0  0  0  0  0  0  0  0
  -26.3260   36.2941  -16.1216 H   0  0  0  0  0  0  0  0  0  0  0  0
  -24.8563   35.6449  -15.3814 H   0  0  0  0  0  0  0  0  0  0  0  0
  -25.7659   31.5611  -19.3224 H   0  0  0  0  0  0  0  0  0  0  0  0
  -23.8848   33.3552  -14.8630 H   0  0  0  0  0  0  0  0  0  0  0  0
  -24.3618   31.6647  -15.0737 H   0  0  0  0  0  0  0  0  0  0  0  0
  -25.4922   32.7965  -14.3182 H   0  0  0  0  0  0  0  0  0  0  0  0
  1  2  2  0  0  0  0
  1  3  1  0  0  0  0
  2  4  1  0  0  0  0
  2  5  1  0  0  0  0
  3  6  2  0  0  0  0
  3  9  1  0  0  0  0
  4  7  2  0  0  0  0
  4  8  1  0  0  0  0
  5 10  1  0  0  0  0
  5 11  1  0  0  0  0
  5 12  1  0  0  0  0
  6  7  1  0  0  0  0
  6 13  1  0  0  0  0
  8 14  1  0  0  0  0
  8 15  1  0  0  0  0
  8 16  1  0  0  0  0
M  END
>  <Column 1>
Cc1nccnc1C ZINC000000003183

>  <Total Molweight>
108.144

>  <cLogP>
0.4536

>  <cLogS>
-0.762

>  <H-Acceptors>
2

>  <H-Donors>
0

>  <Total Surface Area>
95.3

>  <MMFF94 Energy>
56.817

> <Gold.Version>
5.8.1

> <Gold.Id.Protein>
ID|2FQT|mol2

> <Gold.PLP.Fitness>
26.2230

> <Gold.PLP.PLP>
-23.2230

> <Gold.PLP.part.hbond>
0.0000

> <Gold.PLP.part.metal>
0.0000

> <Gold.PLP.part.buried>
-3.0282

> <Gold.PLP.part.nonpolar>
-20.6905

> <Gold.PLP.part.repulsive>
0.0818

> <Gold.PLP.ligand.clash>
0.0000

> <Gold.PLP.ligand.torsion>
0.0000

> <Gold.PLP.Chemscore.Hbond>
0.0000

> <Gold.PLP.Chemscore.CHOScore>
1.0000

> <Gold.PLP.Chemscore.Metal>
0.0000

> <Gold.Chemscore.Hbonds>
donor molecule, donor type, donor heavy atom, donor atom, acceptor molecule, acceptor atom, score
      L1  C     3     9       P1   954  1.00

> <Gold.PLP.Chemscore.Internal.Correction>
0.0000

> <Gold.Protein.RotatedTorsions>
[ 1849  621  620  617 ] final  122.21 input   60.00 | X-H torsion

> <Gold.Protein.ActiveResidues>
 HIS54   GLU57   HIS58   ALA61   PHE62   ILE76   ILE77   ASP78   ILE79   SER80  
 PRO81   GLN125  CYS126  GLY127  GLN128  HIS132  CO701  

> <Gold.Protein.RotatedAtoms>
  -17.9621   27.9730  -13.2269 H   0  0  0  0  0  0  0  0  0  0  0  0  # atno 1849 bound_to 621 
  -19.3660   28.7904  -13.1328 LP  0  0  0  0  0  0  0  0  0  0  0  0  # atno 2431 bound_to 621 
  -19.2601   27.4477  -14.0560 LP  0  0  0  0  0  0  0  0  0  0  0  0  # atno 2432 bound_to 621 

$$$$
Compound 32|DecoysActives|sdf|39|dock2
  -GOLD-   6112412123D 1   1.00000     0.00000

 17 17  0  0  0  0  0  0  0  0  1 V2000
  -25.9076   35.1078  -15.6752 O   0  0  0  0  0  0  0  0  0  0  0  0
  -26.6295   35.8918  -16.5316 C   0  0  0  0  0  0  0  0  0  0  0  0
  -25.6103   33.9963  -16.4127 C   0  0  0  0  0  0  0  0  0  0  0  0
  -26.8081   35.3729  -17.7288 N   0  0  0  0  0  0  0  0  0  0  0  0
  -27.0976   37.1858  -16.0003 C   0  0  0  0  0  0  0  0  0  0  0  0
  -26.1608   34.1598  -17.6665 C   0  0  0  0  0  0  0  0  0  0  0  0
  -24.8224   32.9458  -15.7475 C   0  0  0  0  0  0  0  0  0  0  0  0
  -26.1266   33.2513  -18.8305 C   0  0  0  0  0  0  0  0  0  0  0  0
  -27.7484   37.0316  -15.1345 H   0  0  0  0  0  0  0  0  0  0  0  0
  -27.6624   37.7340  -16.7602 H   0  0  0  0  0  0  0  0  0  0  0  0
  -26.2486   37.8032  -15.6925 H   0  0  0  0  0  0  0  0  0  0  0  0
  -23.8540   33.3400  -15.4246 H   0  0  0  0  0  0  0  0  0  0  0  0
  -25.3524   32.5691  -14.8672 H   0  0  0  0  0  0  0  0  0  0  0  0
  -24.6388   32.1024  -16.4200 H   0  0  0  0  0  0  0  0  0  0  0  0
  -26.6645   33.6822  -19.6807 H   0  0  0  0  0  0  0  0  0  0  0  0
  -26.5937   32.2930  -18.5834 H   0  0  0  0  0  0  0  0  0  0  0  0
  -25.0941   33.0644  -19.1413 H   0  0  0  0  0  0  0  0  0  0  0  0
  1  2  1  0  0  0  0
  1  3  1  0  0  0  0
  2  4  2  0  0  0  0
  2  5  1  0  0  0  0
  3  6  2  0  0  0  0
  3  7  1  0  0  0  0
  4  6  1  0  0  0  0
  5  9  1  0  0  0  0
  5 10  1  0  0  0  0
  5 11  1  0  0  0  0
  6  8  1  0  0  0  0
  7 12  1  0  0  0  0
  7 13  1  0  0  0  0
  7 14  1  0  0  0  0
  8 15  1  0  0  0  0
  8 16  1  0  0  0  0
  8 17  1  0  0  0  0
M  END
>  <Column 1>
Cc1nc(C)c(C)o1 ZINC000000003184

>  <Total Molweight>
111.143

>  <cLogP>
1.2612

>  <cLogS>
-1.429

>  <H-Acceptors>
2

>  <H-Donors>
0

>  <Total Surface Area>
98.49

>  <MMFF94 Energy>
6.3186

> <Gold.Version>
5.8.1

> <Gold.Id.Protein>
ID|2FQT|mol2

> <Gold.PLP.Fitness>
26.1385

> <Gold.PLP.PLP>
-26.1385

> <Gold.PLP.part.hbond>
0.0000

> <Gold.PLP.part.metal>
0.0000

> <Gold.PLP.part.buried>
-3.0848

> <Gold.PLP.part.nonpolar>
-23.0415

> <Gold.PLP.part.repulsive>
0.1678

> <Gold.PLP.ligand.clash>
0.0000

> <Gold.PLP.ligand.torsion>
0.0000

> <Gold.PLP.Chemscore.Hbond>
0.0000

> <Gold.PLP.Chemscore.CHOScore>
0.0000

> <Gold.PLP.Chemscore.Metal>
0.0000

> <Gold.PLP.Chemscore.Internal.Correction>
0.0000

> <Gold.Protein.RotatedTorsions>
[ 1849  621  620  617 ] final   97.04 input   60.00 | X-H torsion

> <Gold.Protein.ActiveResidues>
 HIS54   GLU57   HIS58   ALA61   PHE62   ILE76   ILE77   ASP78   ILE79   SER80  
 PRO81   GLN125  CYS126  GLY127  GLN128  HIS132  CO701  

> <Gold.Protein.RotatedAtoms>
  -18.0733   28.3095  -13.0249 H   0  0  0  0  0  0  0  0  0  0  0  0  # atno 1849 bound_to 621 
  -19.6384   28.5930  -13.3685 LP  0  0  0  0  0  0  0  0  0  0  0  0  # atno 2431 bound_to 621 
  -18.8758   27.3062  -14.0237 LP  0  0  0  0  0  0  0  0  0  0  0  0  # atno 2432 bound_to 621 

$$$$
Compound 33|DecoysActives|sdf|40|dock1
  -GOLD-   6112412123D 1   1.00000     0.00000

 18 19  0  0  0  0  0  0  0  0  1 V2000
  -27.1838   29.4885  -19.8135 O   0  0  0  0  0  0  0  0  0  0  0  0
  -26.3074   29.8217  -19.0235 C   0  0  0  0  0  0  0  0  0  0  0  0
  -26.3026   31.0897  -18.4432 O   0  0  0  0  0  0  0  0  0  0  0  0
  -25.2937   28.9713  -18.6722 N   0  0  0  0  0  0  0  0  0  0  0  0
  -25.2877   31.4424  -17.5435 C   0  0  0  0  0  0  0  0  0  0  0  0
  -24.2678   29.2317  -17.8065 C   0  0  0  0  0  0  0  0  0  0  0  0
  -25.3256   32.7192  -16.9903 C   0  0  0  0  0  0  0  0  0  0  0  0
  -24.2697   30.5661  -17.2008 C   0  0  0  0  0  0  0  0  0  0  0  0
  -23.4014   28.4061  -17.5512 O   0  0  0  0  0  0  0  0  0  0  0  0
  -26.3138   33.6051  -17.3070 O   0  0  0  0  0  0  0  0  0  0  0  0
  -24.3443   33.1235  -16.0917 C   0  0  0  0  0  0  0  0  0  0  0  0
  -23.2768   30.9594  -16.2988 C   0  0  0  0  0  0  0  0  0  0  0  0
  -23.3170   32.2419  -15.7447 C   0  0  0  0  0  0  0  0  0  0  0  0
  -25.3094   28.0576  -19.0994 H   0  0  0  0  0  0  0  0  0  0  0  0
  -25.8871   34.4245  -17.6194 H   0  0  0  0  0  0  0  0  0  0  0  0
  -24.3782   34.1216  -15.6623 H   0  0  0  0  0  0  0  0  0  0  0  0
  -22.4759   30.2746  -16.0272 H   0  0  0  0  0  0  0  0  0  0  0  0
  -22.5481   32.5554  -15.0420 H   0  0  0  0  0  0  0  0  0  0  0  0
  1  2  2  0  0  0  0
  2  3  1  0  0  0  0
  2  4  1  0  0  0  0
  3  5  1  0  0  0  0
  4  6  1  0  0  0  0
  4 14  1  0  0  0  0
  5  7  2  0  0  0  0
  5  8  1  0  0  0  0
  6  9  2  0  0  0  0
  6  8  1  0  0  0  0
  7 10  1  0  0  0  0
  7 11  1  0  0  0  0
  8 12  2  0  0  0  0
 10 15  1  0  0  0  0
 11 13  2  0  0  0  0
 11 16  1  0  0  0  0
 12 13  1  0  0  0  0
 12 17  1  0  0  0  0
 13 18  1  0  0  0  0
M  END
>  <Column 1>
O=c1[nH]c(=O)c2cccc(O)c2o1 ZINC000000003754

>  <Total Molweight>
179.131

>  <cLogP>
0.7166

>  <cLogS>
-2.165

>  <H-Acceptors>
5

>  <H-Donors>
2

>  <Total Surface Area>
123.07

>  <MMFF94 Energy>
-41.853

> <Gold.Version>
5.8.1

> <Gold.Id.Protein>
ID|2FQT|mol2

> <Gold.PLP.Fitness>
32.9338

> <Gold.PLP.PLP>
-18.8982

> <Gold.PLP.part.hbond>
-1.0394

> <Gold.PLP.part.metal>
-1.6444

> <Gold.PLP.part.buried>
1.9778

> <Gold.PLP.part.nonpolar>
-18.7245

> <Gold.PLP.part.repulsive>
0.3428

> <Gold.PLP.ligand.clash>
0.0000

> <Gold.PLP.ligand.torsion>
0.0000

> <Gold.PLP.Chemscore.Hbond>
1.0000

> <Gold.PLP.Chemscore.CHOScore>
0.0000

> <Gold.PLP.Chemscore.Metal>
1.8393

> <Gold.Chemscore.Hbonds>
donor molecule, donor type, donor heavy atom, donor atom, acceptor molecule, acceptor atom, score
      P1  H   966  2177       L1     1  1.00
      P1  M  1222  1222       L1     1  1.00
      P1  M  1222  1222       L1     3  0.84

> <Gold.PLP.Chemscore.Internal.Correction>
0.0000

> <Gold.Protein.RotatedTorsions>
[ 1849  621  620  617 ] final  -28.11 input   60.00 | X-H torsion

> <Gold.Protein.ActiveResidues>
 HIS54   GLU57   HIS58   ALA61   PHE62   ILE76   ILE77   ASP78   ILE79   SER80  
 PRO81   GLN125  CYS126  GLY127  GLN128  HIS132  CO701  

> <Gold.Protein.RotatedAtoms>
  -19.6721   28.5342  -13.4193 H   0  0  0  0  0  0  0  0  0  0  0  0  # atno 1849 bound_to 621 
  -18.7943   27.2948  -14.0036 LP  0  0  0  0  0  0  0  0  0  0  0  0  # atno 2431 bound_to 621 
  -18.1098   28.3781  -12.9915 LP  0  0  0  0  0  0  0  0  0  0  0  0  # atno 2432 bound_to 621 

$$$$
Compound 34|DecoysActives|sdf|41|dock2
  -GOLD-   6112412123D 1   1.00000     0.00000

 24 26  0  0  0  0  0  0  0  0  1 V2000
  -25.0381   31.7580  -16.6182 N   0  0  0  0  0  0  0  0  0  0  0  0
  -25.5989   32.2487  -17.7520 C   0  0  0  0  0  0  0  0  0  0  0  0
  -24.8931   32.6243  -15.6094 C   0  0  0  0  0  0  0  0  0  0  0  0
  -25.7725   31.3582  -18.8537 N   0  0  0  0  0  0  0  0  0  0  0  0
  -26.0046   33.5636  -17.8813 C   0  0  0  0  0  0  0  0  0  0  0  0
  -25.2485   33.9136  -15.6239 N   0  0  0  0  0  0  0  0  0  0  0  0
  -26.1720   30.0667  -18.6948 N   0  0  0  0  0  0  0  0  0  0  0  0
  -25.5705   31.6600  -20.1855 C   0  0  0  0  0  0  0  0  0  0  0  0
  -25.8057   34.3676  -16.7747 C   0  0  0  0  0  0  0  0  0  0  0  0
  -26.2143   29.5766  -19.9352 C   0  0  0  0  0  0  0  0  0  0  0  0
  -25.8498   30.5235  -20.9046 C   0  0  0  0  0  0  0  0  0  0  0  0
  -26.2001   35.7381  -16.8338 N   0  0  0  0  0  0  0  0  0  0  0  0
  -26.5133   36.3597  -18.0034 N   0  0  0  0  0  0  0  0  0  0  0  0
  -26.3175   36.5995  -15.7616 C   0  0  0  0  0  0  0  0  0  0  0  0
  -26.8238   37.6069  -17.6447 C   0  0  0  0  0  0  0  0  0  0  0  0
  -26.7197   37.8144  -16.2609 C   0  0  0  0  0  0  0  0  0  0  0  0
  -24.4460   32.2466  -14.6959 H   0  0  0  0  0  0  0  0  0  0  0  0
  -26.4514   33.9412  -18.7944 H   0  0  0  0  0  0  0  0  0  0  0  0
  -25.2500   32.6474  -20.4869 H   0  0  0  0  0  0  0  0  0  0  0  0
  -26.5104   28.5451  -20.0803 H   0  0  0  0  0  0  0  0  0  0  0  0
  -25.7973   30.3982  -21.9765 H   0  0  0  0  0  0  0  0  0  0  0  0
  -26.1046   36.2643  -14.7561 H   0  0  0  0  0  0  0  0  0  0  0  0
  -27.1140   38.3150  -18.4110 H   0  0  0  0  0  0  0  0  0  0  0  0
  -26.9102   38.7203  -15.7032 H   0  0  0  0  0  0  0  0  0  0  0  0
  1  2  2  0  0  0  0
  1  3  1  0  0  0  0
  2  4  1  0  0  0  0
  2  5  1  0  0  0  0
  3  6  2  0  0  0  0
  3 17  1  0  0  0  0
  4  7  1  0  0  0  0
  4  8  1  0  0  0  0
  5  9  2  0  0  0  0
  5 18  1  0  0  0  0
  6  9  1  0  0  0  0
  7 10  2  0  0  0  0
  8 11  2  0  0  0  0
  8 19  1  0  0  0  0
  9 12  1  0  0  0  0
 10 11  1  0  0  0  0
 10 20  1  0  0  0  0
 11 21  1  0  0  0  0
 12 13  1  0  0  0  0
 12 14  1  0  0  0  0
 13 15  2  0  0  0  0
 14 16  2  0  0  0  0
 14 22  1  0  0  0  0
 15 16  1  0  0  0  0
 15 23  1  0  0  0  0
 16 24  1  0  0  0  0
M  END
>  <Column 1>
c1cnn(-c2cc(-n3cccn3)ncn2)c1 ZINC000000003851

>  <Total Molweight>
212.216

>  <cLogP>
1.314

>  <cLogS>
1.688

>  <H-Acceptors>
6

>  <H-Donors>
0

>  <Total Surface Area>
166.22

>  <MMFF94 Energy>
52.454

> <Gold.Version>
5.8.1

> <Gold.Id.Protein>
ID|2FQT|mol2

> <Gold.PLP.Fitness>
46.9026

> <Gold.PLP.PLP>
-39.4766

> <Gold.PLP.part.hbond>
0.0000

> <Gold.PLP.part.metal>
-1.0000

> <Gold.PLP.part.buried>
-2.4129

> <Gold.PLP.part.nonpolar>
-36.3688

> <Gold.PLP.part.repulsive>
0.2674

> <Gold.PLP.ligand.clash>
0.0000

> <Gold.PLP.ligand.torsion>
0.6950

> <Gold.PLP.Chemscore.Hbond>
0.0000

> <Gold.PLP.Chemscore.CHOScore>
1.0000

> <Gold.PLP.Chemscore.Metal>
0.9693

> <Gold.Chemscore.Hbonds>
donor molecule, donor type, donor heavy atom, donor atom, acceptor molecule, acceptor atom, score
      L1  C    14    22       P1   431  1.00
      P1  M  1222  1222       L1     7  0.97

> <Gold.PLP.Chemscore.Internal.Correction>
0.0000

> <Gold.Protein.RotatedTorsions>
[ 1849  621  620  617 ] final  -33.91 input   60.00 | X-H torsion

> <Gold.Protein.ActiveResidues>
 HIS54   GLU57   HIS58   ALA61   PHE62   ILE76   ILE77   ASP78   ILE79   SER80  
 PRO81   GLN125  CYS126  GLY127  GLN128  HIS132  CO701  

> <Gold.Protein.RotatedAtoms>
  -19.7076   28.4690  -13.4782 H   0  0  0  0  0  0  0  0  0  0  0  0  # atno 1849 bound_to 621 
  -18.7032   27.2894  -13.9759 LP  0  0  0  0  0  0  0  0  0  0  0  0  # atno 2431 bound_to 621 
  -18.1651   28.4492  -12.9600 LP  0  0  0  0  0  0  0  0  0  0  0  0  # atno 2432 bound_to 621 

$$$$
Compound 35|DecoysActives|sdf|42|dock4
  -GOLD-   6112412123D 1   1.00000     0.00000

 33 35  0  0  0  0  0  0  0  0  1 V2000
  -24.4174   36.0339  -16.1355 S   0  0  0  0  0  0  0  0  0  0  0  0
  -25.9044   34.9935  -15.8540 C   0  0  0  0  0  0  0  0  0  0  0  0
  -25.2694   37.5169  -16.7357 C   0  0  0  0  0  0  0  0  0  0  0  0
  -27.3984   35.9998  -16.1779 S   0  0  0  0  0  0  0  0  0  0  0  0
  -25.9183   33.7483  -16.7498 C   0  0  0  0  0  0  0  0  0  0  0  0
  -26.6001   37.6143  -16.0216 C   0  0  0  0  0  0  0  0  0  0  0  0
  -24.8078   32.8410  -16.5167 N   0  0  0  0  0  0  0  0  0  0  0  0
  -24.6119   31.6058  -17.0699 C   0  0  0  0  0  0  0  0  0  0  0  0
  -23.7095   33.1060  -15.7379 C   0  0  0  0  0  0  0  0  0  0  0  0
  -25.4034   30.8231  -17.9540 C   0  0  0  0  0  0  0  0  0  0  0  0
  -23.4063   31.1917  -16.5900 C   0  0  0  0  0  0  0  0  0  0  0  0
  -22.8406   32.1158  -15.7666 N   0  0  0  0  0  0  0  0  0  0  0  0
  -26.4973   31.1975  -18.3653 O   0  0  0  0  0  0  0  0  0  0  0  0
  -24.8084   29.6029  -18.2830 N   0  0  0  0  0  0  0  0  0  0  0  0
  -22.8669   29.9757  -16.9331 N   0  0  0  0  0  0  0  0  0  0  0  0
  -23.5661   29.1388  -17.8030 C   0  0  0  0  0  0  0  0  0  0  0  0
  -25.5186   28.7170  -19.1847 C   0  0  0  0  0  0  0  0  0  0  0  0
  -21.5820   29.5720  -16.3917 C   0  0  0  0  0  0  0  0  0  0  0  0
  -23.1264   28.0367  -18.1438 O   0  0  0  0  0  0  0  0  0  0  0  0
  -25.9085   34.7155  -14.7962 H   0  0  0  0  0  0  0  0  0  0  0  0
  -24.6542   38.3999  -16.5385 H   0  0  0  0  0  0  0  0  0  0  0  0
  -25.4006   37.4391  -17.8206 H   0  0  0  0  0  0  0  0  0  0  0  0
  -26.8303   33.1587  -16.5923 H   0  0  0  0  0  0  0  0  0  0  0  0
  -25.9018   34.0193  -17.8138 H   0  0  0  0  0  0  0  0  0  0  0  0
  -26.4744   37.8578  -14.9610 H   0  0  0  0  0  0  0  0  0  0  0  0
  -27.2310   38.3869  -16.4709 H   0  0  0  0  0  0  0  0  0  0  0  0
  -23.5954   34.0257  -15.1772 H   0  0  0  0  0  0  0  0  0  0  0  0
  -25.7289   27.7769  -18.6641 H   0  0  0  0  0  0  0  0  0  0  0  0
  -24.8791   28.4961  -20.0456 H   0  0  0  0  0  0  0  0  0  0  0  0
  -26.4590   29.1444  -19.5413 H   0  0  0  0  0  0  0  0  0  0  0  0
  -21.6472   29.5447  -15.2995 H   0  0  0  0  0  0  0  0  0  0  0  0
  -20.8222   30.2987  -16.6958 H   0  0  0  0  0  0  0  0  0  0  0  0
  -21.2817   28.5832  -16.7481 H   0  0  0  0  0  0  0  0  0  0  0  0
  1  2  1  0  0  0  0
  1  3  1  0  0  0  0
  2  4  1  0  0  0  0
  2  5  1  0  0  0  0
  2 20  1  0  0  0  0
  3  6  1  0  0  0  0
  3 21  1  0  0  0  0
  3 22  1  0  0  0  0
  4  6  1  0  0  0  0
  5  7  1  0  0  0  0
  5 23  1  0  0  0  0
  5 24  1  0  0  0  0
  6 25  1  0  0  0  0
  6 26  1  0  0  0  0
  7  8  1  0  0  0  0
  7  9  1  0  0  0  0
  8 10  1  0  0  0  0
  8 11  2  0  0  0  0
  9 12  2  0  0  0  0
  9 27  1  0  0  0  0
 10 13  2  0  0  0  0
 10 14  1  0  0  0  0
 11 15  1  0  0  0  0
 11 12  1  0  0  0  0
 14 16  1  0  0  0  0
 14 17  1  0  0  0  0
 15 18  1  0  0  0  0
 15 16  1  0  0  0  0
 16 19  2  0  0  0  0
 17 28  1  0  0  0  0
 17 29  1  0  0  0  0
 17 30  1  0  0  0  0
 18 31  1  0  0  0  0
 18 32  1  0  0  0  0
 18 33  1  0  0  0  0
M  END
>  <Column 1>
Cn1c(=O)c2c(ncn2CC2SCCS2)n(C)c1=O ZINC000000003885

>  <Total Molweight>
298.39

>  <cLogP>
0.3798

>  <cLogS>
-1.805

>  <H-Acceptors>
6

>  <H-Donors>
0

>  <Total Surface Area>
203.6

>  <MMFF94 Energy>
-108.72

> <Gold.Version>
5.8.1

> <Gold.Id.Protein>
ID|2FQT|mol2

> <Gold.PLP.Fitness>
45.6585

> <Gold.PLP.PLP>
-39.8672

> <Gold.PLP.part.hbond>
0.0000

> <Gold.PLP.part.metal>
-1.0000

> <Gold.PLP.part.buried>
-4.9353

> <Gold.PLP.part.nonpolar>
-35.6453

> <Gold.PLP.part.repulsive>
0.1884

> <Gold.PLP.ligand.clash>
0.0000

> <Gold.PLP.ligand.torsion>
0.0677

> <Gold.PLP.Chemscore.Hbond>
0.0000

> <Gold.PLP.Chemscore.CHOScore>
0.0000

> <Gold.PLP.Chemscore.Metal>
0.9865

> <Gold.Chemscore.Hbonds>
donor molecule, donor type, donor heavy atom, donor atom, acceptor molecule, acceptor atom, score
      P1  M  1222  1222       L1    13  0.99

> <Gold.PLP.Chemscore.Internal.Correction>
0.0076

> <Gold.Protein.RotatedTorsions>
[ 1849  621  620  617 ] final  -26.36 input   60.00 | X-H torsion

> <Gold.Protein.ActiveResidues>
 HIS54   GLU57   HIS58   ALA61   PHE62   ILE76   ILE77   ASP78   ILE79   SER80  
 PRO81   GLN125  CYS126  GLY127  GLN128  HIS132  CO701  

> <Gold.Protein.RotatedAtoms>
  -19.6598   28.5529  -13.4016 H   0  0  0  0  0  0  0  0  0  0  0  0  # atno 1849 bound_to 621 
  -18.8219   27.2980  -14.0109 LP  0  0  0  0  0  0  0  0  0  0  0  0  # atno 2431 bound_to 621 
  -18.0946   28.3561  -13.0020 LP  0  0  0  0  0  0  0  0  0  0  0  0  # atno 2432 bound_to 621 

$$$$
Compound 36|DecoysActives|sdf|43|dock1
  -GOLD-   6112412123D 1   1.00000     0.00000

 21 23  0  0  0  0  0  0  0  0  1 V2000
  -24.3500   32.6654  -14.8171 S   0  0  0  0  0  0  0  0  0  0  0  0
  -25.2537   33.6330  -16.0214 C   0  0  0  0  0  0  0  0  0  0  0  0
  -23.4359   31.6015  -15.9602 C   0  0  0  0  0  0  0  0  0  0  0  0
  -25.6309   33.1076  -17.2731 C   0  0  0  0  0  0  0  0  0  0  0  0
  -25.6161   34.9399  -15.6712 C   0  0  0  0  0  0  0  0  0  0  0  0
  -24.3411   31.0312  -17.0062 C   0  0  0  0  0  0  0  0  0  0  0  0
  -25.2932   31.7828  -17.6055 N   0  0  0  0  0  0  0  0  0  0  0  0
  -26.3506   33.9199  -18.1599 C   0  0  0  0  0  0  0  0  0  0  0  0
  -26.3333   35.7352  -16.5639 C   0  0  0  0  0  0  0  0  0  0  0  0
  -24.2370   29.8116  -17.4586 N   0  0  0  0  0  0  0  0  0  0  0  0
  -25.8821   30.9553  -18.5352 C   0  0  0  0  0  0  0  0  0  0  0  0
  -26.6973   35.2267  -17.8071 C   0  0  0  0  0  0  0  0  0  0  0  0
  -25.2038   29.7419  -18.4208 N   0  0  0  0  0  0  0  0  0  0  0  0
  -26.8014   31.1661  -19.3093 O   0  0  0  0  0  0  0  0  0  0  0  0
  -22.6544   32.1867  -16.4560 H   0  0  0  0  0  0  0  0  0  0  0  0
  -22.9573   30.7923  -15.4010 H   0  0  0  0  0  0  0  0  0  0  0  0
  -25.3422   35.3483  -14.7007 H   0  0  0  0  0  0  0  0  0  0  0  0
  -26.6540   33.5569  -19.1392 H   0  0  0  0  0  0  0  0  0  0  0  0
  -26.6101   36.7498  -16.2875 H   0  0  0  0  0  0  0  0  0  0  0  0
  -27.2587   35.8441  -18.5049 H   0  0  0  0  0  0  0  0  0  0  0  0
  -25.3900   28.9057  -18.9585 H   0  0  0  0  0  0  0  0  0  0  0  0
  1  2  1  0  0  0  0
  1  3  1  0  0  0  0
  2  4  2  0  0  0  0
  2  5  1  0  0  0  0
  3  6  1  0  0  0  0
  3 15  1  0  0  0  0
  3 16  1  0  0  0  0
  4  7  1  0  0  0  0
  4  8  1  0  0  0  0
  5  9  2  0  0  0  0
  5 17  1  0  0  0  0
  6 10  2  0  0  0  0
  6  7  1  0  0  0  0
  7 11  1  0  0  0  0
  8 12  2  0  0  0  0
  8 18  1  0  0  0  0
  9 12  1  0  0  0  0
  9 19  1  0  0  0  0
 10 13  1  0  0  0  0
 11 14  2  0  0  0  0
 11 13  1  0  0  0  0
 12 20  1  0  0  0  0
 13 21  1  0  0  0  0
M  END
>  <Column 1>
O=c1[nH]nc2n1-c1ccccc1SC2 ZINC000000003946

>  <Total Molweight>
205.241

>  <cLogP>
0.4756

>  <cLogS>
-3.711

>  <H-Acceptors>
4

>  <H-Donors>
1

>  <Total Surface Area>
139.99

>  <MMFF94 Energy>
46.055

> <Gold.Version>
5.8.1

> <Gold.Id.Protein>
ID|2FQT|mol2

> <Gold.PLP.Fitness>
40.0568

> <Gold.PLP.PLP>
-34.1376

> <Gold.PLP.part.hbond>
0.0000

> <Gold.PLP.part.metal>
-1.0000

> <Gold.PLP.part.buried>
-3.0040

> <Gold.PLP.part.nonpolar>
-30.8318

> <Gold.PLP.part.repulsive>
0.3194

> <Gold.PLP.ligand.clash>
0.0000

> <Gold.PLP.ligand.torsion>
0.0000

> <Gold.PLP.Chemscore.Hbond>
0.0000

> <Gold.PLP.Chemscore.CHOScore>
0.0000

> <Gold.PLP.Chemscore.Metal>
0.9865

> <Gold.Chemscore.Hbonds>
donor molecule, donor type, donor heavy atom, donor atom, acceptor molecule, acceptor atom, score
      P1  M  1222  1222       L1    14  0.99

> <Gold.PLP.Chemscore.Internal.Correction>
0.0000

> <Gold.Protein.RotatedTorsions>
[ 1849  621  620  617 ] final   73.39 input   60.00 | X-H torsion

> <Gold.Protein.ActiveResidues>
 HIS54   GLU57   HIS58   ALA61   PHE62   ILE76   ILE77   ASP78   ILE79   SER80  
 PRO81   GLN125  CYS126  GLY127  GLN128  HIS132  CO701  

> <Gold.Protein.RotatedAtoms>
  -18.3148   28.5852  -12.9116 H   0  0  0  0  0  0  0  0  0  0  0  0  # atno 1849 bound_to 621 
  -19.7604   28.3161  -13.6088 LP  0  0  0  0  0  0  0  0  0  0  0  0  # atno 2431 bound_to 621 
  -18.5106   27.3055  -13.8975 LP  0  0  0  0  0  0  0  0  0  0  0  0  # atno 2432 bound_to 621 

$$$$
Compound 37|DecoysActives|sdf|44|dock2
  -GOLD-   6112412123D 1   1.00000     0.00000

 21 22  0  0  0  0  0  0  0  0  1 V2000
  -25.8920   31.7026  -20.6095 O   0  0  0  0  0  0  0  0  0  0  0  0
  -25.8681   32.4036  -19.6001 C   0  0  0  0  0  0  0  0  0  0  0  0
  -26.6119   33.5492  -19.5727 N   0  0  0  0  0  0  0  0  0  0  0  0
  -25.0493   32.0510  -18.3812 C   0  0  2  0  0  0  0  0  0  0  0  0
  -26.5314   34.5736  -18.5635 C   0  0  0  0  0  0  0  0  0  0  0  0
  -25.5986   30.8955  -17.5757 C   0  0  0  0  0  0  0  0  0  0  0  0
  -24.9122   33.1571  -17.3186 C   0  0  1  0  0  0  0  0  0  0  0  0
  -26.1916   33.9930  -17.2056 C   0  0  0  0  0  0  0  0  0  0  0  0
  -26.1544   29.8885  -17.9741 O   0  0  0  0  0  0  0  0  0  0  0  0
  -25.3277   31.1447  -16.2415 N   0  0  0  0  0  0  0  0  0  0  0  0
  -24.6369   32.3794  -16.0382 C   0  0  0  0  0  0  0  0  0  0  0  0
  -27.1423   33.7186  -20.4205 H   0  0  0  0  0  0  0  0  0  0  0  0
  -24.0484   31.7587  -18.7252 H   0  0  0  0  0  0  0  0  0  0  0  0
  -27.4935   35.0940  -18.5356 H   0  0  0  0  0  0  0  0  0  0  0  0
  -25.7662   35.2885  -18.8847 H   0  0  0  0  0  0  0  0  0  0  0  0
  -24.0750   33.8257  -17.5530 H   0  0  0  0  0  0  0  0  0  0  0  0
  -27.0275   33.3763  -16.8512 H   0  0  0  0  0  0  0  0  0  0  0  0
  -26.0558   34.7992  -16.4757 H   0  0  0  0  0  0  0  0  0  0  0  0
  -25.5695   30.4650  -15.5296 H   0  0  0  0  0  0  0  0  0  0  0  0
  -23.5720   32.1513  -15.9260 H   0  0  0  0  0  0  0  0  0  0  0  0
  -25.0026   32.8691  -15.1318 H   0  0  0  0  0  0  0  0  0  0  0  0
  1  2  2  0  0  0  0
  2  3  1  0  0  0  0
  2  4  1  0  0  0  0
  3  5  1  0  0  0  0
  3 12  1  0  0  0  0
  4  6  1  0  0  0  0
  4  7  1  0  0  0  0
  4 13  1  0  0  0  0
  5  8  1  0  0  0  0
  5 14  1  0  0  0  0
  5 15  1  0  0  0  0
  6  9  2  0  0  0  0
  6 10  1  0  0  0  0
  7 11  1  0  0  0  0
  7  8  1  0  0  0  0
  7 16  1  0  0  0  0
  8 17  1  0  0  0  0
  8 18  1  0  0  0  0
 10 11  1  0  0  0  0
 10 19  1  0  0  0  0
 11 20  1  0  0  0  0
 11 21  1  0  0  0  0
M  END
>  <Column 1>
O=C1NCC[C@H]2CNC(=O)[C@@H]12 ZINC000000003976

>  <Total Molweight>
154.168

>  <cLogP>
-1.108

>  <cLogS>
-0.74

>  <H-Acceptors>
4

>  <H-Donors>
2

>  <Total Surface Area>
111.2

>  <MMFF94 Energy>
-41.387

> <Gold.Version>
5.8.1

> <Gold.Id.Protein>
ID|2FQT|mol2

> <Gold.PLP.Fitness>
32.0487

> <Gold.PLP.PLP>
-22.2295

> <Gold.PLP.part.hbond>
-2.0000

> <Gold.PLP.part.metal>
-1.0000

> <Gold.PLP.part.buried>
-0.9815

> <Gold.PLP.part.nonpolar>
-17.9100

> <Gold.PLP.part.repulsive>
1.3424

> <Gold.PLP.ligand.clash>
0.0000

> <Gold.PLP.ligand.torsion>
0.0000

> <Gold.PLP.Chemscore.Hbond>
1.3000

> <Gold.PLP.Chemscore.CHOScore>
0.0000

> <Gold.PLP.Chemscore.Metal>
0.9865

> <Gold.Chemscore.Hbonds>
donor molecule, donor type, donor heavy atom, donor atom, acceptor molecule, acceptor atom, score
      L1  H     3    12       P1   954  1.00
      L1  H    10    19       P1   426  0.30
      P1  M  1222  1222       L1     9  0.99

> <Gold.PLP.Chemscore.Internal.Correction>
0.0000

> <Gold.Protein.RotatedTorsions>
[ 1849  621  620  617 ] final   29.27 input   60.00 | X-H torsion

> <Gold.Protein.ActiveResidues>
 HIS54   GLU57   HIS58   ALA61   PHE62   ILE76   ILE77   ASP78   ILE79   SER80  
 PRO81   GLN125  CYS126  GLY127  GLN128  HIS132  CO701  

> <Gold.Protein.RotatedAtoms>
  -18.9678   28.8430  -12.9540 H   0  0  0  0  0  0  0  0  0  0  0  0  # atno 1849 bound_to 621 
  -19.5869   27.7304  -13.9673 LP  0  0  0  0  0  0  0  0  0  0  0  0  # atno 2431 bound_to 621 
  -18.0264   27.6315  -13.4964 LP  0  0  0  0  0  0  0  0  0  0  0  0  # atno 2432 bound_to 621 

$$$$
Compound 38|DecoysActives|sdf|45|dock15
  -GOLD-   6112412123D 1   1.00000     0.00000

 34 36  0  0  0  0  0  0  0  0  1 V2000
  -26.6871   33.8271  -19.4328 F   0  0  0  0  0  0  0  0  0  0  0  0
  -26.1441   33.8272  -18.2069 C   0  0  0  0  0  0  0  0  0  0  0  0
  -25.5985   32.6392  -17.6899 C   0  0  0  0  0  0  0  0  0  0  0  0
  -26.1547   35.0133  -17.4821 C   0  0  0  0  0  0  0  0  0  0  0  0
  -25.0545   32.6850  -16.3935 C   0  0  0  0  0  0  0  0  0  0  0  0
  -25.5851   31.3566  -18.5313 C   0  0  0  0  0  0  0  0  0  0  0  0
  -25.6093   35.0244  -16.2089 C   0  0  0  0  0  0  0  0  0  0  0  0
  -25.0609   33.8732  -15.6573 C   0  0  0  0  0  0  0  0  0  0  0  0
  -26.9341   31.0968  -18.9868 O   0  0  0  0  0  0  0  0  0  0  0  0
  -25.1073   30.1226  -17.7233 C   0  0  0  0  0  0  0  0  0  0  0  0
  -24.6921   31.5968  -19.7833 C   0  0  0  0  0  0  0  0  0  0  0  0
  -25.6151   36.1591  -15.4979 F   0  0  0  0  0  0  0  0  0  0  0  0
  -25.4872   28.8506  -18.3061 N   0  0  0  0  0  0  0  0  0  0  0  0
  -24.9666   30.6972  -20.8859 N   0  0  0  0  0  0  0  0  0  0  0  0
  -26.7849   28.5336  -18.4778 N   0  0  0  0  0  0  0  0  0  0  0  0
  -24.6794   27.8244  -18.6847 C   0  0  0  0  0  0  0  0  0  0  0  0
  -24.2428   29.5708  -21.0500 N   0  0  0  0  0  0  0  0  0  0  0  0
  -25.8994   30.8297  -21.8635 C   0  0  0  0  0  0  0  0  0  0  0  0
  -26.6869   27.3025  -18.9869 C   0  0  0  0  0  0  0  0  0  0  0  0
  -25.4137   26.8291  -19.1263 N   0  0  0  0  0  0  0  0  0  0  0  0
  -24.8094   29.0572  -22.1478 C   0  0  0  0  0  0  0  0  0  0  0  0
  -25.8176   29.8065  -22.6816 N   0  0  0  0  0  0  0  0  0  0  0  0
  -26.5777   35.9162  -17.9066 H   0  0  0  0  0  0  0  0  0  0  0  0
  -24.6078   31.7993  -15.9439 H   0  0  0  0  0  0  0  0  0  0  0  0
  -24.6338   33.9067  -14.6592 H   0  0  0  0  0  0  0  0  0  0  0  0
  -27.5437   31.3243  -18.2473 H   0  0  0  0  0  0  0  0  0  0  0  0
  -25.5014   30.1407  -16.7002 H   0  0  0  0  0  0  0  0  0  0  0  0
  -24.0137   30.0916  -17.6538 H   0  0  0  0  0  0  0  0  0  0  0  0
  -23.6258   31.4954  -19.5562 H   0  0  0  0  0  0  0  0  0  0  0  0
  -24.8562   32.6067  -20.1809 H   0  0  0  0  0  0  0  0  0  0  0  0
  -23.6002   27.8546  -18.6249 H   0  0  0  0  0  0  0  0  0  0  0  0
  -26.5913   31.6581  -21.9358 H   0  0  0  0  0  0  0  0  0  0  0  0
  -27.5656   26.7328  -19.2607 H   0  0  0  0  0  0  0  0  0  0  0  0
  -24.4774   28.1181  -22.5731 H   0  0  0  0  0  0  0  0  0  0  0  0
  1  2  1  0  0  0  0
  2  3  2  0  0  0  0
  2  4  1  0  0  0  0
  3  5  1  0  0  0  0
  3  6  1  0  0  0  0
  4  7  2  0  0  0  0
  4 23  1  0  0  0  0
  5  8  2  0  0  0  0
  5 24  1  0  0  0  0
  6  9  1  0  0  0  0
  6 10  1  0  0  0  0
  6 11  1  0  0  0  0
  7 12  1  0  0  0  0
  7  8  1  0  0  0  0
  8 25  1  0  0  0  0
  9 26  1  0  0  0  0
 10 13  1  0  0  0  0
 10 27  1  0  0  0  0
 10 28  1  0  0  0  0
 11 14  1  0  0  0  0
 11 29  1  0  0  0  0
 11 30  1  0  0  0  0
 13 15  1  0  0  0  0
 13 16  1  0  0  0  0
 14 17  1  0  0  0  0
 14 18  1  0  0  0  0
 15 19  2  0  0  0  0
 16 20  2  0  0  0  0
 16 31  1  0  0  0  0
 17 21  2  0  0  0  0
 18 22  2  0  0  0  0
 18 32  1  0  0  0  0
 19 20  1  0  0  0  0
 19 33  1  0  0  0  0
 21 22  1  0  0  0  0
 21 34  1  0  0  0  0
M  END
>  <Column 1>
OC(Cn1cncn1)(Cn1cncn1)c1ccc(F)cc1F ZINC000000004009

>  <Total Molweight>
306.275

>  <cLogP>
-0.1089

>  <cLogS>
-2.175

>  <H-Acceptors>
7

>  <H-Donors>
1

>  <Total Surface Area>
223.2

>  <MMFF94 Energy>
27.662

> <Gold.Version>
5.8.1

> <Gold.Id.Protein>
ID|2FQT|mol2

> <Gold.PLP.Fitness>
59.2278

> <Gold.PLP.PLP>
-43.0919

> <Gold.PLP.part.hbond>
-0.9056

> <Gold.PLP.part.metal>
-2.0000

> <Gold.PLP.part.buried>
-2.2993

> <Gold.PLP.part.nonpolar>
-39.6525

> <Gold.PLP.part.repulsive>
0.1342

> <Gold.PLP.ligand.clash>
0.0000

> <Gold.PLP.ligand.torsion>
0.9876

> <Gold.PLP.Chemscore.Hbond>
1.0000

> <Gold.PLP.Chemscore.CHOScore>
1.0000

> <Gold.PLP.Chemscore.Metal>
2.0000

> <Gold.Chemscore.Hbonds>
donor molecule, donor type, donor heavy atom, donor atom, acceptor molecule, acceptor atom, score
      L1  H     9    26       P1   437  1.00
      L1  C    18    32       P1   954  1.00
      P1  M  1222  1222       L1     9  1.00
      P1  M  1222  1222       L1    15  1.00

> <Gold.PLP.Chemscore.Internal.Correction>
0.1113

> <Gold.Protein.RotatedTorsions>
[ 1849  621  620  617 ] final -102.69 input   60.00 | X-H torsion

> <Gold.Protein.ActiveResidues>
 HIS54   GLU57   HIS58   ALA61   PHE62   ILE76   ILE77   ASP78   ILE79   SER80  
 PRO81   GLN125  CYS126  GLY127  GLN128  HIS132  CO701  

> <Gold.Protein.RotatedAtoms>
  -19.4549   27.5940  -14.0160 H   0  0  0  0  0  0  0  0  0  0  0  0  # atno 1849 bound_to 621 
  -17.9705   27.7750  -13.3743 LP  0  0  0  0  0  0  0  0  0  0  0  0  # atno 2431 bound_to 621 
  -19.1523   28.8447  -13.0198 LP  0  0  0  0  0  0  0  0  0  0  0  0  # atno 2432 bound_to 621 

$$$$
Compound 39|DecoysActives|sdf|46|dock4
  -GOLD-   6112412123D 1   1.00000     0.00000

 16 16  0  0  0  0  0  0  0  0  1 V2000
  -26.7995   34.4979  -19.3278 N   0  0  0  0  0  0  0  0  0  0  0  0
  -26.2101   33.6452  -18.3899 C   0  0  0  0  0  0  0  0  0  0  0  0
  -25.8608   32.3226  -18.7381 C   0  0  0  0  0  0  0  0  0  0  0  0
  -25.8487   34.1391  -17.1321 C   0  0  0  0  0  0  0  0  0  0  0  0
  -26.1663   31.8134  -20.0035 N   0  0  0  0  0  0  0  0  0  0  0  0
  -25.3153   31.4806  -17.7632 C   0  0  0  0  0  0  0  0  0  0  0  0
  -25.2564   33.3039  -16.1836 C   0  0  0  0  0  0  0  0  0  0  0  0
  -25.0065   31.9700  -16.4931 C   0  0  0  0  0  0  0  0  0  0  0  0
  -26.9677   34.1418  -20.2585 H   0  0  0  0  0  0  0  0  0  0  0  0
  -26.5475   35.4746  -19.2528 H   0  0  0  0  0  0  0  0  0  0  0  0
  -26.0484   35.1749  -16.8730 H   0  0  0  0  0  0  0  0  0  0  0  0
  -26.6428   32.4493  -20.6295 H   0  0  0  0  0  0  0  0  0  0  0  0
  -25.5211   31.1593  -20.4242 H   0  0  0  0  0  0  0  0  0  0  0  0
  -25.1045   30.4406  -17.9947 H   0  0  0  0  0  0  0  0  0  0  0  0
  -25.0003   33.6932  -15.2020 H   0  0  0  0  0  0  0  0  0  0  0  0
  -24.5626   31.3121  -15.7511 H   0  0  0  0  0  0  0  0  0  0  0  0
  1  2  1  0  0  0  0
  1  9  1  0  0  0  0
  1 10  1  0  0  0  0
  2  3  2  0  0  0  0
  2  4  1  0  0  0  0
  3  5  1  0  0  0  0
  3  6  1  0  0  0  0
  4  7  2  0  0  0  0
  4 11  1  0  0  0  0
  5 12  1  0  0  0  0
  5 13  1  0  0  0  0
  6  8  2  0  0  0  0
  6 14  1  0  0  0  0
  7  8  1  0  0  0  0
  7 15  1  0  0  0  0
  8 16  1  0  0  0  0
M  END
>  <Column 1>
Nc1ccccc1N ZINC000000004316

>  <Total Molweight>
108.144

>  <cLogP>
0.305

>  <cLogS>
-1.768

>  <H-Acceptors>
2

>  <H-Donors>
2

>  <Total Surface Area>
90.3

>  <MMFF94 Energy>
17.743

> <Gold.Version>
5.8.1

> <Gold.Id.Protein>
ID|2FQT|mol2

> <Gold.PLP.Fitness>
27.6789

> <Gold.PLP.PLP>
-21.6789

> <Gold.PLP.part.hbond>
-2.0000

> <Gold.PLP.part.metal>
0.0000

> <Gold.PLP.part.buried>
-3.0575

> <Gold.PLP.part.nonpolar>
-16.8886

> <Gold.PLP.part.repulsive>
0.1887

> <Gold.PLP.ligand.clash>
0.0000

> <Gold.PLP.ligand.torsion>
0.0000

> <Gold.PLP.Chemscore.Hbond>
2.0000

> <Gold.PLP.Chemscore.CHOScore>
0.0000

> <Gold.PLP.Chemscore.Metal>
0.0000

> <Gold.Chemscore.Hbonds>
donor molecule, donor type, donor heavy atom, donor atom, acceptor molecule, acceptor atom, score
      L1  H     1     9       P1   954  1.00
      L1  H     5    12       P1   954  1.00

> <Gold.PLP.Chemscore.Internal.Correction>
0.0000

> <Gold.Protein.RotatedTorsions>
[ 1849  621  620  617 ] final -118.52 input   60.00 | X-H torsion

> <Gold.Protein.ActiveResidues>
 HIS54   GLU57   HIS58   ALA61   PHE62   ILE76   ILE77   ASP78   ILE79   SER80  
 PRO81   GLN125  CYS126  GLY127  GLN128  HIS132  CO701  

> <Gold.Protein.RotatedAtoms>
  -19.2476   27.4448  -14.0508 H   0  0  0  0  0  0  0  0  0  0  0  0  # atno 1849 bound_to 621 
  -17.9560   27.9835  -13.2203 LP  0  0  0  0  0  0  0  0  0  0  0  0  # atno 2431 bound_to 621 
  -19.3755   28.7865  -13.1389 LP  0  0  0  0  0  0  0  0  0  0  0  0  # atno 2432 bound_to 621 

$$$$
Compound 40|DecoysActives|sdf|47|dock2
  -GOLD-   6112412123D 1   1.00000     0.00000

 22 23  0  0  0  0  0  0  0  0  1 V2000
  -25.8212   29.2678  -18.8546 S   0  0  0  0  0  0  0  0  0  0  0  0
  -24.9265   28.2640  -19.3857 O   0  0  0  0  0  0  0  0  0  0  0  0
  -26.8583   29.8760  -19.6539 O   0  0  0  0  0  0  0  0  0  0  0  0
  -26.6520   28.4719  -17.6231 N   0  0  0  0  0  0  0  0  0  0  0  0
  -24.8978   30.5050  -17.9376 C   0  0  0  0  0  0  0  0  0  0  0  0
  -25.4188   31.8719  -18.1745 C   0  0  0  0  0  0  0  0  0  0  0  0
  -25.9200   32.1892  -19.3785 N   0  0  0  0  0  0  0  0  0  0  0  0
  -25.5343   32.9573  -17.2646 C   0  0  0  0  0  0  0  0  0  0  0  0
  -26.3419   33.5039  -19.2790 O   0  0  0  0  0  0  0  0  0  0  0  0
  -26.1174   33.9603  -18.0195 C   0  0  0  0  0  0  0  0  0  0  0  0
  -25.2300   33.2212  -15.9176 C   0  0  0  0  0  0  0  0  0  0  0  0
  -26.4233   35.2314  -17.5409 C   0  0  0  0  0  0  0  0  0  0  0  0
  -25.5243   34.4928  -15.4018 C   0  0  0  0  0  0  0  0  0  0  0  0
  -26.1100   35.4790  -16.2005 C   0  0  0  0  0  0  0  0  0  0  0  0
  -27.6520   28.6712  -17.6974 H   0  0  0  0  0  0  0  0  0  0  0  0
  -26.2586   28.7422  -16.7180 H   0  0  0  0  0  0  0  0  0  0  0  0
  -24.9701   30.2335  -16.8789 H   0  0  0  0  0  0  0  0  0  0  0  0
  -23.8520   30.4313  -18.2525 H   0  0  0  0  0  0  0  0  0  0  0  0
  -24.7675   32.4719  -15.2807 H   0  0  0  0  0  0  0  0  0  0  0  0
  -26.8779   35.9821  -18.1758 H   0  0  0  0  0  0  0  0  0  0  0  0
  -25.2868   34.7144  -14.3628 H   0  0  0  0  0  0  0  0  0  0  0  0
  -26.3245   36.4569  -15.7738 H   0  0  0  0  0  0  0  0  0  0  0  0
  1  2  2  0  0  0  0
  1  3  2  0  0  0  0
  1  4  1  0  0  0  0
  1  5  1  0  0  0  0
  4 15  1  0  0  0  0
  4 16  1  0  0  0  0
  5  6  1  0  0  0  0
  5 17  1  0  0  0  0
  5 18  1  0  0  0  0
  6  7  2  0  0  0  0
  6  8  1  0  0  0  0
  7  9  1  0  0  0  0
  8 10  2  0  0  0  0
  8 11  1  0  0  0  0
  9 10  1  0  0  0  0
 10 12  1  0  0  0  0
 11 13  2  0  0  0  0
 11 19  1  0  0  0  0
 12 14  2  0  0  0  0
 12 20  1  0  0  0  0
 13 14  1  0  0  0  0
 13 21  1  0  0  0  0
 14 22  1  0  0  0  0
M  END
>  <Column 1>
NS(=O)(=O)Cc1noc2ccccc12 ZINC000000004321

>  <Total Molweight>
212.229

>  <cLogP>
0.4386

>  <cLogS>
-3.472

>  <H-Acceptors>
5

>  <H-Donors>
1

>  <Total Surface Area>
147.17

>  <MMFF94 Energy>
-50.221

> <Gold.Version>
5.8.1

> <Gold.Id.Protein>
ID|2FQT|mol2

> <Gold.PLP.Fitness>
51.5561

> <Gold.PLP.PLP>
-31.5664

> <Gold.PLP.part.hbond>
-2.0000

> <Gold.PLP.part.metal>
-2.0000

> <Gold.PLP.part.buried>
-3.2114

> <Gold.PLP.part.nonpolar>
-26.2270

> <Gold.PLP.part.repulsive>
1.4876

> <Gold.PLP.ligand.clash>
0.0000

> <Gold.PLP.ligand.torsion>
0.5407

> <Gold.PLP.Chemscore.Hbond>
2.9920

> <Gold.PLP.Chemscore.CHOScore>
0.0000

> <Gold.PLP.Chemscore.Metal>
1.9865

> <Gold.Chemscore.Hbonds>
donor molecule, donor type, donor heavy atom, donor atom, acceptor molecule, acceptor atom, score
      L1  H     4    15       P1   403  0.99
      L1  H     4    16       P1   426  1.00
      P1  H   966  2177       L1     3  1.00
      P1  M  1222  1222       L1     3  1.00
      P1  M  1222  1222       L1     4  0.99

> <Gold.PLP.Chemscore.Internal.Correction>
0.1759

> <Gold.Protein.RotatedTorsions>
[ 1849  621  620  617 ] final  -82.05 input   60.00 | X-H torsion

> <Gold.Protein.ActiveResidues>
 HIS54   GLU57   HIS58   ALA61   PHE62   ILE76   ILE77   ASP78   ILE79   SER80  
 PRO81   GLN125  CYS126  GLY127  GLN128  HIS132  CO701  

> <Gold.Protein.RotatedAtoms>
  -19.6557   27.8408  -13.9093 H   0  0  0  0  0  0  0  0  0  0  0  0  # atno 1849 bound_to 621 
  -18.0899   27.5390  -13.5846 LP  0  0  0  0  0  0  0  0  0  0  0  0  # atno 2431 bound_to 621 
  -18.8306   28.8322  -12.9171 LP  0  0  0  0  0  0  0  0  0  0  0  0  # atno 2432 bound_to 621 

$$$$
Compound 41|DecoysActives|sdf|48|dock3
  -GOLD-   6112412123D 1   1.00000     0.00000

 27 28  0  0  0  0  0  0  0  0  1 V2000
  -25.5433   35.4707  -15.4054 O   0  0  0  0  0  0  0  0  0  0  0  0
  -25.6740   34.5008  -16.3595 C   0  0  0  0  0  0  0  0  0  0  0  0
  -26.0435   36.7618  -15.7293 C   0  0  0  0  0  0  0  0  0  0  0  0
  -26.2034   34.6689  -17.6358 C   0  0  0  0  0  0  0  0  0  0  0  0
  -25.2222   33.2386  -15.9773 C   0  0  0  0  0  0  0  0  0  0  0  0
  -26.2777   33.5802  -18.5177 C   0  0  0  0  0  0  0  0  0  0  0  0
  -25.2977   32.1540  -16.8596 C   0  0  0  0  0  0  0  0  0  0  0  0
  -25.8280   32.2960  -18.1546 C   0  0  0  0  0  0  0  0  0  0  0  0
  -25.9093   31.1523  -19.0896 C   0  0  0  0  0  0  0  0  0  0  0  0
  -25.7114   31.3955  -20.3858 N   0  0  0  0  0  0  0  0  0  0  0  0
  -26.1754   29.9501  -18.5781 N   0  0  0  0  0  0  0  0  0  0  0  0
  -25.7966   30.3363  -21.1714 C   0  0  0  0  0  0  0  0  0  0  0  0
  -26.2356   28.9685  -19.4607 C   0  0  0  0  0  0  0  0  0  0  0  0
  -26.0550   29.1048  -20.7639 N   0  0  0  0  0  0  0  0  0  0  0  0
  -25.6021   30.5293  -22.5092 N   0  0  0  0  0  0  0  0  0  0  0  0
  -26.5054   27.7158  -18.9892 N   0  0  0  0  0  0  0  0  0  0  0  0
  -25.5128   37.1870  -16.5874 H   0  0  0  0  0  0  0  0  0  0  0  0
  -25.8640   37.4151  -14.8700 H   0  0  0  0  0  0  0  0  0  0  0  0
  -27.1240   36.7338  -15.9060 H   0  0  0  0  0  0  0  0  0  0  0  0
  -26.5689   35.6294  -17.9832 H   0  0  0  0  0  0  0  0  0  0  0  0
  -24.8064   33.0932  -14.9830 H   0  0  0  0  0  0  0  0  0  0  0  0
  -26.6979   33.7477  -19.5088 H   0  0  0  0  0  0  0  0  0  0  0  0
  -24.9335   31.1855  -16.5203 H   0  0  0  0  0  0  0  0  0  0  0  0
  -25.4049   31.4594  -22.8337 H   0  0  0  0  0  0  0  0  0  0  0  0
  -25.6645   29.7310  -23.1166 H   0  0  0  0  0  0  0  0  0  0  0  0
  -26.6444   27.6009  -18.0006 H   0  0  0  0  0  0  0  0  0  0  0  0
  -26.5544   26.9588  -19.6480 H   0  0  0  0  0  0  0  0  0  0  0  0
  1  2  1  0  0  0  0
  1  3  1  0  0  0  0
  2  4  2  0  0  0  0
  2  5  1  0  0  0  0
  3 17  1  0  0  0  0
  3 18  1  0  0  0  0
  3 19  1  0  0  0  0
  4  6  1  0  0  0  0
  4 20  1  0  0  0  0
  5  7  2  0  0  0  0
  5 21  1  0  0  0  0
  6  8  2  0  0  0  0
  6 22  1  0  0  0  0
  7  8  1  0  0  0  0
  7 23  1  0  0  0  0
  8  9  1  0  0  0  0
  9 10  2  0  0  0  0
  9 11  1  0  0  0  0
 10 12  1  0  0  0  0
 11 13  2  0  0  0  0
 12 14  2  0  0  0  0
 12 15  1  0  0  0  0
 13 16  1  0  0  0  0
 13 14  1  0  0  0  0
 15 24  1  0  0  0  0
 15 25  1  0  0  0  0
 16 26  1  0  0  0  0
 16 27  1  0  0  0  0
M  END
>  <Column 1>
COc1ccc(-c2nc(N)nc(N)n2)cc1 ZINC000000004396

>  <Total Molweight>
217.231

>  <cLogP>
0.9301

>  <cLogS>
-3.846

>  <H-Acceptors>
6

>  <H-Donors>
2

>  <Total Surface Area>
168.6

>  <MMFF94 Energy>
-203.28

> <Gold.Version>
5.8.1

> <Gold.Id.Protein>
ID|2FQT|mol2

> <Gold.PLP.Fitness>
38.8398

> <Gold.PLP.PLP>
-33.3358

> <Gold.PLP.part.hbond>
-1.0000

> <Gold.PLP.part.metal>
-1.0000

> <Gold.PLP.part.buried>
-2.4207

> <Gold.PLP.part.nonpolar>
-29.6921

> <Gold.PLP.part.repulsive>
0.5450

> <Gold.PLP.ligand.clash>
0.0000

> <Gold.PLP.ligand.torsion>
0.5133

> <Gold.PLP.Chemscore.Hbond>
0.2038

> <Gold.PLP.Chemscore.CHOScore>
0.0000

> <Gold.PLP.Chemscore.Metal>
0.9865

> <Gold.Chemscore.Hbonds>
donor molecule, donor type, donor heavy atom, donor atom, acceptor molecule, acceptor atom, score
      P1  H   966  2177       L1    14  0.20
      P1  M  1222  1222       L1    11  0.99

> <Gold.PLP.Chemscore.Internal.Correction>
0.0000

> <Gold.Protein.RotatedTorsions>
[ 1849  621  620  617 ] final  159.35 input   60.00 | X-H torsion

> <Gold.Protein.ActiveResidues>
 HIS54   GLU57   HIS58   ALA61   PHE62   ILE76   ILE77   ASP78   ILE79   SER80  
 PRO81   GLN125  CYS126  GLY127  GLN128  HIS132  CO701  

> <Gold.Protein.RotatedAtoms>
  -18.1078   27.5277  -13.5959 H   0  0  0  0  0  0  0  0  0  0  0  0  # atno 1849 bound_to 621 
  -18.8085   28.8278  -12.9126 LP  0  0  0  0  0  0  0  0  0  0  0  0  # atno 2431 bound_to 621 
  -19.6708   27.8588  -13.9047 LP  0  0  0  0  0  0  0  0  0  0  0  0  # atno 2432 bound_to 621 

$$$$
Compound 42|DecoysActives|sdf|49|dock1
  -GOLD-   6112412123D 1   1.00000     0.00000

 30 32  0  0  0  0  0  0  0  0  2 V2000
  -26.1015   33.3574  -19.0099 O   0  0  0  0  0  0  0  0  0  0  0  0
  -25.9644   32.0241  -19.2652 C   0  0  0  0  0  0  0  0  0  0  0  0
  -25.6671   33.4975  -17.7182 C   0  0  0  0  0  0  0  0  0  0  0  0
  -25.4889   31.3269  -18.2651 N   0  0  0  0  0  0  0  0  0  0  0  0
  -26.3198   31.6097  -20.4719 N   0  0  0  0  0  0  0  0  0  0  0  0
  -25.3049   32.2476  -17.2695 C   0  0  0  0  0  0  0  0  0  0  0  0
  -25.7018   34.8577  -17.1284 C   0  0  2  0  0  0  0  0  0  0  0  0
  -24.6295   35.7665  -17.7818 C   0  0  0  0  0  0  0  0  0  0  0  0
  -25.4584   34.8546  -15.6201 C   0  0  0  0  0  0  0  0  0  0  0  0
  -27.1037   35.4995  -17.1971 C   0  0  0  0  0  0  0  0  0  0  0  0
  -24.6136   37.1937  -17.2154 C   0  0  0  0  0  0  0  0  0  0  0  0
  -25.8743   36.2666  -15.2697 N   0  3  2  0  0  0  0  0  0  0  0  0
  -27.1943   36.4422  -15.9927 C   0  0  0  0  0  0  0  0  0  0  0  0
  -24.8141   37.2542  -15.7011 C   0  0  0  0  0  0  0  0  0  0  0  0
  -26.6765   32.2316  -21.1820 H   0  0  0  0  0  0  0  0  0  0  0  0
  -26.2628   30.6253  -20.7022 H   0  0  0  0  0  0  0  0  0  0  0  0
  -24.9257   31.9577  -16.2985 H   0  0  0  0  0  0  0  0  0  0  0  0
  -23.6367   35.3209  -17.6303 H   0  0  0  0  0  0  0  0  0  0  0  0
  -24.7767   35.8174  -18.8684 H   0  0  0  0  0  0  0  0  0  0  0  0
  -26.1168   34.1744  -15.0659 H   0  0  0  0  0  0  0  0  0  0  0  0
  -24.4195   34.6964  -15.3111 H   0  0  0  0  0  0  0  0  0  0  0  0
  -27.2715   36.0346  -18.1387 H   0  0  0  0  0  0  0  0  0  0  0  0
  -27.8999   34.7478  -17.1178 H   0  0  0  0  0  0  0  0  0  0  0  0
  -23.6738   37.6896  -17.4839 H   0  0  0  0  0  0  0  0  0  0  0  0
  -25.4048   37.7753  -17.7050 H   0  0  0  0  0  0  0  0  0  0  0  0
  -26.0118   36.3504  -14.2525 H   0  0  0  0  0  0  0  0  0  0  0  0
  -27.3284   37.4955  -16.2553 H   0  0  0  0  0  0  0  0  0  0  0  0
  -27.9817   36.1314  -15.2982 H   0  0  0  0  0  0  0  0  0  0  0  0
  -23.8975   36.9896  -15.1631 H   0  0  0  0  0  0  0  0  0  0  0  0
  -25.1380   38.2475  -15.3740 H   0  0  0  0  0  0  0  0  0  0  0  0
  1  2  1  0  0  0  0
  1  3  1  0  0  0  0
  2  4  2  0  0  0  0
  2  5  1  0  0  0  0
  3  6  2  0  0  0  0
  4  6  1  0  0  0  0
  5 15  1  0  0  0  0
  5 16  1  0  0  0  0
  6 17  1  0  0  0  0
  7  3  1  0  0  0  0
  7  8  1  0  0  0  0
  7  9  1  0  0  0  0
  7 10  1  0  0  0  0
  8 11  1  0  0  0  0
  8 18  1  0  0  0  0
  8 19  1  0  0  0  0
  9 12  1  0  0  0  0
  9 20  1  0  0  0  0
  9 21  1  0  0  0  0
 10 13  1  0  0  0  0
 10 22  1  0  0  0  0
 10 23  1  0  0  0  0
 11 14  1  0  0  0  0
 11 24  1  0  0  0  0
 11 25  1  0  0  0  0
 12 13  1  0  0  0  0
 12 14  1  0  0  0  0
 12 26  1  0  0  0  0
 13 27  1  0  0  0  0
 13 28  1  0  0  0  0
 14 29  1  0  0  0  0
 14 30  1  0  0  0  0
M  CHG  1  12   1
M  END
>  <Column 1>
Nc1ncc([C@@]23CCC[N@@H+](CC2)C3)o1 ZINC000000004494

>  <Total Molweight>
194.257

>  <cLogP>
-1.4143

>  <cLogS>
-2.221

>  <H-Acceptors>
3

>  <H-Donors>
2

>  <Total Surface Area>
160.54

>  <MMFF94 Energy>
-22.419

> <Gold.Version>
5.8.1

> <Gold.Id.Protein>
ID|2FQT|mol2

> <Gold.PLP.Fitness>
40.1139

> <Gold.PLP.PLP>
-34.4991

> <Gold.PLP.part.hbond>
-2.0000

> <Gold.PLP.part.metal>
0.0000

> <Gold.PLP.part.buried>
-4.9044

> <Gold.PLP.part.nonpolar>
-28.1058

> <Gold.PLP.part.repulsive>
0.4006

> <Gold.PLP.ligand.clash>
0.0000

> <Gold.PLP.ligand.torsion>
0.2071

> <Gold.PLP.Chemscore.Hbond>
1.9920

> <Gold.PLP.Chemscore.CHOScore>
0.0000

> <Gold.PLP.Chemscore.Metal>
0.0000

> <Gold.Chemscore.Hbonds>
donor molecule, donor type, donor heavy atom, donor atom, acceptor molecule, acceptor atom, score
      L1  H     5    15       P1   954  0.99
      L1  H    12    26       P1   431  1.00

> <Gold.PLP.Chemscore.Internal.Correction>
0.0531

> <Gold.Protein.RotatedTorsions>
[ 1849  621  620  617 ] final  -12.21 input   60.00 | X-H torsion

> <Gold.Protein.ActiveResidues>
 HIS54   GLU57   HIS58   ALA61   PHE62   ILE76   ILE77   ASP78   ILE79   SER80  
 PRO81   GLN125  CYS126  GLY127  GLN128  HIS132  CO701  

> <Gold.Protein.RotatedAtoms>
  -19.5336   28.6865  -13.2623 H   0  0  0  0  0  0  0  0  0  0  0  0  # atno 1849 bound_to 621 
  -19.0446   27.3498  -14.0512 LP  0  0  0  0  0  0  0  0  0  0  0  0  # atno 2431 bound_to 621 
  -17.9989   28.1697  -13.1020 LP  0  0  0  0  0  0  0  0  0  0  0  0  # atno 2432 bound_to 621 

$$$$
Compound 43|DecoysActives|sdf|50|dock2
  -GOLD-   6112412123D 1   1.00000     0.00000

 30 32  0  0  0  0  0  0  0  0  1 V2000
  -24.9239   40.4532  -17.1373 O   0  0  0  0  0  0  0  0  0  0  0  0
  -24.4550   39.4096  -16.7012 C   0  0  0  0  0  0  0  0  0  0  0  0
  -25.2750   38.2191  -16.4674 C   0  0  0  0  0  0  0  0  0  0  0  0
  -23.0228   39.2932  -16.3838 C   0  0  0  0  0  0  0  0  0  0  0  0
  -24.6523   37.0821  -15.9709 C   0  0  0  0  0  0  0  0  0  0  0  0
  -26.6470   38.2220  -16.7351 C   0  0  0  0  0  0  0  0  0  0  0  0
  -22.5068   38.1481  -15.9053 C   0  0  0  0  0  0  0  0  0  0  0  0
  -23.3127   37.0269  -15.6922 O   0  0  0  0  0  0  0  0  0  0  0  0
  -25.4015   35.9289  -15.7359 C   0  0  0  0  0  0  0  0  0  0  0  0
  -27.3957   37.0685  -16.4998 C   0  0  0  0  0  0  0  0  0  0  0  0
  -21.1569   37.9634  -15.5785 N   0  0  0  0  0  0  0  0  0  0  0  0
  -26.7729   35.9228  -16.0005 C   0  0  0  0  0  0  0  0  0  0  0  0
  -20.0481   38.8252  -16.0440 C   0  0  0  0  0  0  0  0  0  0  0  0
  -20.6636   36.7050  -14.9677 C   0  0  0  0  0  0  0  0  0  0  0  0
  -18.9973   39.0136  -14.9389 C   0  0  0  0  0  0  0  0  0  0  0  0
  -19.5918   36.9927  -13.9080 C   0  0  0  0  0  0  0  0  0  0  0  0
  -18.5070   37.7575  -14.4514 O   0  0  0  0  0  0  0  0  0  0  0  0
  -22.4466   40.1859  -16.5712 H   0  0  0  0  0  0  0  0  0  0  0  0
  -27.1286   39.1164  -17.1240 H   0  0  0  0  0  0  0  0  0  0  0  0
  -24.9194   35.0359  -15.3472 H   0  0  0  0  0  0  0  0  0  0  0  0
  -28.4633   37.0628  -16.7056 H   0  0  0  0  0  0  0  0  0  0  0  0
  -27.3570   35.0239  -15.8173 H   0  0  0  0  0  0  0  0  0  0  0  0
  -19.5864   38.3459  -16.9153 H   0  0  0  0  0  0  0  0  0  0  0  0
  -20.3894   39.8181  -16.3478 H   0  0  0  0  0  0  0  0  0  0  0  0
  -20.2363   36.0864  -15.7662 H   0  0  0  0  0  0  0  0  0  0  0  0
  -21.4651   36.1294  -14.4935 H   0  0  0  0  0  0  0  0  0  0  0  0
  -19.4100   39.5861  -14.0994 H   0  0  0  0  0  0  0  0  0  0  0  0
  -18.1424   39.5721  -15.3331 H   0  0  0  0  0  0  0  0  0  0  0  0
  -20.0180   37.5321  -13.0535 H   0  0  0  0  0  0  0  0  0  0  0  0
  -19.1780   36.0509  -13.5342 H   0  0  0  0  0  0  0  0  0  0  0  0
  1  2  2  0  0  0  0
  2  3  1  0  0  0  0
  2  4  1  0  0  0  0
  3  5  2  0  0  0  0
  3  6  1  0  0  0  0
  4  7  2  0  0  0  0
  4 18  1  0  0  0  0
  5  8  1  0  0  0  0
  5  9  1  0  0  0  0
  6 10  2  0  0  0  0
  6 19  1  0  0  0  0
  7 11  1  0  0  0  0
  7  8  1  0  0  0  0
  9 12  2  0  0  0  0
  9 20  1  0  0  0  0
 10 12  1  0  0  0  0
 10 21  1  0  0  0  0
 11 13  1  0  0  0  0
 11 14  1  0  0  0  0
 12 22  1  0  0  0  0
 13 15  1  0  0  0  0
 13 23  1  0  0  0  0
 13 24  1  0  0  0  0
 14 16  1  0  0  0  0
 14 25  1  0  0  0  0
 14 26  1  0  0  0  0
 15 17  1  0  0  0  0
 15 27  1  0  0  0  0
 15 28  1  0  0  0  0
 16 17  1  0  0  0  0
 16 29  1  0  0  0  0
 16 30  1  0  0  0  0
M  END
>  <Column 1>
O=c1cc(N2CCOCC2)oc2ccccc12 ZINC000000004590

>  <Total Molweight>
231.25

>  <cLogP>
1.7884

>  <cLogS>
-3.346

>  <H-Acceptors>
4

>  <H-Donors>
0

>  <Total Surface Area>
174.06

>  <MMFF94 Energy>
86.251

> <Gold.Version>
5.8.1

> <Gold.Id.Protein>
ID|2FQT|mol2

> <Gold.PLP.Fitness>
41.7079

> <Gold.PLP.PLP>
-41.8152

> <Gold.PLP.part.hbond>
0.0000

> <Gold.PLP.part.metal>
0.0000

> <Gold.PLP.part.buried>
-5.4477

> <Gold.PLP.part.nonpolar>
-37.2565

> <Gold.PLP.part.repulsive>
0.0867

> <Gold.PLP.ligand.clash>
0.0000

> <Gold.PLP.ligand.torsion>
0.0750

> <Gold.PLP.Chemscore.Hbond>
0.0000

> <Gold.PLP.Chemscore.CHOScore>
0.0000

> <Gold.PLP.Chemscore.Metal>
0.0000

> <Gold.PLP.Chemscore.Internal.Correction>
0.0427

> <Gold.Protein.RotatedTorsions>
[ 1849  621  620  617 ] final    2.60 input   60.00 | X-H torsion

> <Gold.Protein.ActiveResidues>
 HIS54   GLU57   HIS58   ALA61   PHE62   ILE76   ILE77   ASP78   ILE79   SER80  
 PRO81   GLN125  CYS126  GLY127  GLN128  HIS132  CO701  

> <Gold.Protein.RotatedAtoms>
  -19.3580   28.7862  -13.1301 H   0  0  0  0  0  0  0  0  0  0  0  0  # atno 1849 bound_to 621 
  -19.2656   27.4509  -14.0556 LP  0  0  0  0  0  0  0  0  0  0  0  0  # atno 2431 bound_to 621 
  -17.9548   27.9683  -13.2307 LP  0  0  0  0  0  0  0  0  0  0  0  0  # atno 2432 bound_to 621 

$$$$
Compound 44|DecoysActives|sdf|51|dock2
  -GOLD-   6112412123D 1   1.00000     0.00000

 22 23  0  0  0  0  0  0  0  0  2 V2000
  -27.3990   35.8108  -16.7529 O   0  0  0  0  0  0  0  0  0  0  0  0
  -26.1514   35.3093  -16.4228 C   0  0  0  0  0  0  0  0  0  0  0  0
  -27.4022   37.0944  -16.3043 C   0  0  0  0  0  0  0  0  0  0  0  0
  -25.4092   36.2140  -15.8015 N   0  0  0  0  0  0  0  0  0  0  0  0
  -25.7807   33.9614  -16.7471 C   0  0  0  0  0  0  0  0  0  0  0  0
  -26.1883   37.3395  -15.7243 C   0  0  0  0  0  0  0  0  0  0  0  0
  -25.2096   33.2050  -15.7828 C   0  0  0  0  0  0  0  0  0  0  0  0
  -26.0257   33.3899  -18.1185 C   0  0  0  0  0  0  0  0  0  0  0  0
  -24.7454   31.7902  -15.9973 C   0  0  0  0  0  0  0  0  0  0  0  0
  -25.9185   31.8921  -18.1691 N   0  3  0  0  0  0  0  0  0  0  0  0
  -24.6983   31.3829  -17.4715 C   0  0  0  0  0  0  0  0  0  0  0  0
  -28.3021   37.6692  -16.4695 H   0  0  0  0  0  0  0  0  0  0  0  0
  -25.8348   38.2510  -15.2610 H   0  0  0  0  0  0  0  0  0  0  0  0
  -25.0514   33.6116  -14.7814 H   0  0  0  0  0  0  0  0  0  0  0  0
  -25.2983   33.7833  -18.8372 H   0  0  0  0  0  0  0  0  0  0  0  0
  -27.0355   33.6221  -18.4722 H   0  0  0  0  0  0  0  0  0  0  0  0
  -25.4217   31.1218  -15.4511 H   0  0  0  0  0  0  0  0  0  0  0  0
  -23.7480   31.6629  -15.5617 H   0  0  0  0  0  0  0  0  0  0  0  0
  -25.9311   31.5798  -19.1477 H   0  0  0  0  0  0  0  0  0  0  0  0
  -26.7546   31.4932  -17.7225 H   0  0  0  0  0  0  0  0  0  0  0  0
  -24.6874   30.2951  -17.5872 H   0  0  0  0  0  0  0  0  0  0  0  0
  -23.8307   31.8085  -17.9874 H   0  0  0  0  0  0  0  0  0  0  0  0
  1  2  1  0  0  0  0
  1  3  1  0  0  0  0
  2  4  2  0  0  0  0
  2  5  1  0  0  0  0
  3  6  2  0  0  0  0
  3 12  1  0  0  0  0
  4  6  1  0  0  0  0
  5  7  2  0  0  0  0
  5  8  1  0  0  0  0
  6 13  1  0  0  0  0
  7  9  1  0  0  0  0
  7 14  1  0  0  0  0
  8 10  1  0  0  0  0
  8 15  1  0  0  0  0
  8 16  1  0  0  0  0
  9 11  1  0  0  0  0
  9 17  1  0  0  0  0
  9 18  1  0  0  0  0
 10 11  1  0  0  0  0
 10 19  1  0  0  0  0
 10 20  1  0  0  0  0
 11 21  1  0  0  0  0
 11 22  1  0  0  0  0
M  CHG  1  10   1
M  END
>  <Column 1>
C1=C(c2ncco2)C[NH2+]CC1 ZINC000000004597

>  <Total Molweight>
151.188

>  <cLogP>
-0.0749

>  <cLogS>
-0.587

>  <H-Acceptors>
2

>  <H-Donors>
1

>  <Total Surface Area>
121.94

>  <MMFF94 Energy>
13.117

> <Gold.Version>
5.8.1

> <Gold.Id.Protein>
ID|2FQT|mol2

> <Gold.PLP.Fitness>
32.4030

> <Gold.PLP.PLP>
-31.4916

> <Gold.PLP.part.hbond>
-0.5972

> <Gold.PLP.part.metal>
0.0000

> <Gold.PLP.part.buried>
-4.9639

> <Gold.PLP.part.nonpolar>
-26.5424

> <Gold.PLP.part.repulsive>
0.3219

> <Gold.PLP.ligand.clash>
0.0000

> <Gold.PLP.ligand.torsion>
0.8118

> <Gold.PLP.Chemscore.Hbond>
0.8450

> <Gold.PLP.Chemscore.CHOScore>
0.0000

> <Gold.PLP.Chemscore.Metal>
0.0000

> <Gold.Chemscore.Hbonds>
donor molecule, donor type, donor heavy atom, donor atom, acceptor molecule, acceptor atom, score
      L1  H    10    20       P1   437  0.84

> <Gold.PLP.Chemscore.Internal.Correction>
0.0001

> <Gold.Protein.RotatedTorsions>
[ 1849  621  620  617 ] final  109.49 input   60.00 | X-H torsion

> <Gold.Protein.ActiveResidues>
 HIS54   GLU57   HIS58   ALA61   PHE62   ILE76   ILE77   ASP78   ILE79   SER80  
 PRO81   GLN125  CYS126  GLY127  GLN128  HIS132  CO701  

> <Gold.Protein.RotatedAtoms>
  -17.9975   28.1447  -13.1164 H   0  0  0  0  0  0  0  0  0  0  0  0  # atno 1849 bound_to 621 
  -19.5194   28.7060  -13.2464 LP  0  0  0  0  0  0  0  0  0  0  0  0  # atno 2431 bound_to 621 
  -19.0710   27.3591  -14.0537 LP  0  0  0  0  0  0  0  0  0  0  0  0  # atno 2432 bound_to 621 

$$$$
Compound 45|DecoysActives|sdf|52|dock2
  -GOLD-   6112412123D 1   1.00000     0.00000

 21 22  0  0  0  0  0  0  0  0  1 V2000
  -24.9097   34.1309  -16.2483 S   0  0  0  0  0  0  0  0  0  0  0  0
  -25.7511   34.0023  -17.7392 C   0  0  0  0  0  0  0  0  0  0  0  0
  -25.9342   35.3837  -15.7002 C   0  0  0  0  0  0  0  0  0  0  0  0
  -26.8013   34.9019  -17.7991 C   0  0  0  0  0  0  0  0  0  0  0  0
  -25.3163   32.9863  -18.7540 C   0  0  1  0  0  0  0  0  0  0  0  0
  -26.9038   35.7002  -16.6239 C   0  0  0  0  0  0  0  0  0  0  0  0
  -26.3738   31.9891  -18.8699 N   0  0  0  0  0  0  0  0  0  0  0  0
  -25.0291   33.6513  -20.1253 C   0  0  0  0  0  0  0  0  0  0  0  0
  -26.3961   31.0857  -19.9027 C   0  0  0  0  0  0  0  0  0  0  0  0
  -24.5358   34.7631  -20.2889 O   0  0  0  0  0  0  0  0  0  0  0  0
  -25.2495   32.8343  -21.2163 N   0  0  0  0  0  0  0  0  0  0  0  0
  -27.0495   30.0509  -19.8268 O   0  0  0  0  0  0  0  0  0  0  0  0
  -25.4510   31.4036  -21.0640 C   0  0  0  0  0  0  0  0  0  0  0  0
  -25.7758   35.8297  -14.7277 H   0  0  0  0  0  0  0  0  0  0  0  0
  -27.4630   34.9898  -18.6534 H   0  0  0  0  0  0  0  0  0  0  0  0
  -24.4032   32.4582  -18.4536 H   0  0  0  0  0  0  0  0  0  0  0  0
  -27.6490   36.4705  -16.4662 H   0  0  0  0  0  0  0  0  0  0  0  0
  -26.9478   31.7670  -18.0663 H   0  0  0  0  0  0  0  0  0  0  0  0
  -25.0220   33.2316  -22.1194 H   0  0  0  0  0  0  0  0  0  0  0  0
  -24.4810   30.9350  -20.8740 H   0  0  0  0  0  0  0  0  0  0  0  0
  -25.8788   31.0244  -21.9957 H   0  0  0  0  0  0  0  0  0  0  0  0
  1  2  1  0  0  0  0
  1  3  1  0  0  0  0
  2  4  2  0  0  0  0
  2  5  1  0  0  0  0
  3  6  2  0  0  0  0
  3 14  1  0  0  0  0
  4  6  1  0  0  0  0
  4 15  1  0  0  0  0
  5  7  1  0  0  0  0
  5  8  1  0  0  0  0
  5 16  1  0  0  0  0
  6 17  1  0  0  0  0
  7  9  1  0  0  0  0
  7 18  1  0  0  0  0
  8 10  2  0  0  0  0
  8 11  1  0  0  0  0
  9 12  2  0  0  0  0
  9 13  1  0  0  0  0
 11 13  1  0  0  0  0
 11 19  1  0  0  0  0
 13 20  1  0  0  0  0
 13 21  1  0  0  0  0
M  END
>  <Column 1>
O=C1CNC(=O)[C@@H](c2cccs2)N1 ZINC000000004710

>  <Total Molweight>
196.23

>  <cLogP>
-0.3126

>  <cLogS>
-1.168

>  <H-Acceptors>
4

>  <H-Donors>
2

>  <Total Surface Area>
140.38

>  <MMFF94 Energy>
69.828

> <Gold.Version>
5.8.1

> <Gold.Id.Protein>
ID|2FQT|mol2

> <Gold.PLP.Fitness>
41.3407

> <Gold.PLP.PLP>
-26.9227

> <Gold.PLP.part.hbond>
-2.0000

> <Gold.PLP.part.metal>
-1.0000

> <Gold.PLP.part.buried>
-1.9946

> <Gold.PLP.part.nonpolar>
-22.8450

> <Gold.PLP.part.repulsive>
0.3522

> <Gold.PLP.ligand.clash>
0.0000

> <Gold.PLP.ligand.torsion>
0.0609

> <Gold.PLP.Chemscore.Hbond>
1.8450

> <Gold.PLP.Chemscore.CHOScore>
1.0000

> <Gold.PLP.Chemscore.Metal>
1.0000

> <Gold.Chemscore.Hbonds>
donor molecule, donor type, donor heavy atom, donor atom, acceptor molecule, acceptor atom, score
      L1  H     7    18       P1   437  0.84
      P1  H   966  2177       L1    12  1.00
      L1  C     3    14       P1   431  1.00
      P1  M  1222  1222       L1    12  1.00

> <Gold.PLP.Chemscore.Internal.Correction>
0.0048

> <Gold.Protein.RotatedTorsions>
[ 1849  621  620  617 ] final  -78.45 input   60.00 | X-H torsion

> <Gold.Protein.ActiveResidues>
 HIS54   GLU57   HIS58   ALA61   PHE62   ILE76   ILE77   ASP78   ILE79   SER80  
 PRO81   GLN125  CYS126  GLY127  GLN128  HIS132  CO701  

> <Gold.Protein.RotatedAtoms>
  -19.6807   27.8877  -13.8845 H   0  0  0  0  0  0  0  0  0  0  0  0  # atno 1849 bound_to 621 
  -18.1215   27.5041  -13.6204 LP  0  0  0  0  0  0  0  0  0  0  0  0  # atno 2431 bound_to 621 
  -18.7739   28.8198  -12.9063 LP  0  0  0  0  0  0  0  0  0  0  0  0  # atno 2432 bound_to 621 

$$$$
Compound 46|DecoysActives|sdf|53|dock2
  -GOLD-   6112412123D 1   1.00000     0.00000

 38 39  0  0  0  0  0  0  0  0  1 V2000
  -25.9877   30.5304  -18.9145 S   0  0  0  0  0  0  0  0  0  0  0  0
  -26.2039   29.3575  -18.1012 O   0  0  0  0  0  0  0  0  0  0  0  0
  -27.0961   31.2725  -19.4695 O   0  0  0  0  0  0  0  0  0  0  0  0
  -25.0094   31.5988  -18.0483 N   0  0  0  0  0  0  0  0  0  0  0  0
  -24.9429   30.1294  -20.1880 N   0  0  0  0  0  0  0  0  0  0  0  0
  -25.5129   31.9140  -16.6616 C   0  0  0  0  0  0  0  0  0  0  0  0
  -24.7229   32.8710  -18.7968 C   0  0  0  0  0  0  0  0  0  0  0  0
  -25.3769   30.6159  -21.5157 C   0  0  0  0  0  0  0  0  0  0  0  0
  -24.5959   28.6922  -20.2243 C   0  0  0  0  0  0  0  0  0  0  0  0
  -24.4767   32.7706  -15.9061 C   0  0  0  0  0  0  0  0  0  0  0  0
  -23.6876   33.7241  -18.0319 C   0  0  0  0  0  0  0  0  0  0  0  0
  -24.1557   33.9964  -16.6618 N   0  0  0  0  0  0  0  0  0  0  0  0
  -24.9611   35.1080  -16.4375 C   0  0  0  0  0  0  0  0  0  0  0  0
  -24.3836   36.3207  -16.3539 N   0  0  0  0  0  0  0  0  0  0  0  0
  -26.3329   34.9797  -16.3285 C   0  0  0  0  0  0  0  0  0  0  0  0
  -25.1727   37.3910  -16.1387 C   0  0  0  0  0  0  0  0  0  0  0  0
  -27.0590   36.1273  -16.1074 C   0  0  0  0  0  0  0  0  0  0  0  0
  -26.5061   37.3435  -15.9963 N   0  0  0  0  0  0  0  0  0  0  0  0
  -24.5060   38.7232  -16.0004 C   0  0  0  0  0  0  0  0  0  0  0  0
  -25.6634   30.9861  -16.1009 H   0  0  0  0  0  0  0  0  0  0  0  0
  -26.4714   32.4404  -16.7282 H   0  0  0  0  0  0  0  0  0  0  0  0
  -24.3075   32.6340  -19.7819 H   0  0  0  0  0  0  0  0  0  0  0  0
  -25.6530   33.4354  -18.9338 H   0  0  0  0  0  0  0  0  0  0  0  0
  -26.2637   30.0783  -21.8646 H   0  0  0  0  0  0  0  0  0  0  0  0
  -25.5853   31.6890  -21.4952 H   0  0  0  0  0  0  0  0  0  0  0  0
  -24.5715   30.4634  -22.2421 H   0  0  0  0  0  0  0  0  0  0  0  0
  -25.4845   28.0767  -20.3946 H   0  0  0  0  0  0  0  0  0  0  0  0
  -24.1119   28.3901  -19.2911 H   0  0  0  0  0  0  0  0  0  0  0  0
  -23.8811   28.5008  -21.0315 H   0  0  0  0  0  0  0  0  0  0  0  0
  -23.5513   32.1894  -15.7986 H   0  0  0  0  0  0  0  0  0  0  0  0
  -24.8149   32.9881  -14.8859 H   0  0  0  0  0  0  0  0  0  0  0  0
  -23.4660   34.6351  -18.5967 H   0  0  0  0  0  0  0  0  0  0  0  0
  -22.7449   33.1655  -17.9657 H   0  0  0  0  0  0  0  0  0  0  0  0
  -26.8347   34.0292  -16.4398 H   0  0  0  0  0  0  0  0  0  0  0  0
  -28.1404   36.0969  -16.0159 H   0  0  0  0  0  0  0  0  0  0  0  0
  -25.1720   39.5243  -16.3352 H   0  0  0  0  0  0  0  0  0  0  0  0
  -24.2436   38.8965  -14.9529 H   0  0  0  0  0  0  0  0  0  0  0  0
  -23.5938   38.7619  -16.6038 H   0  0  0  0  0  0  0  0  0  0  0  0
  1  2  2  0  0  0  0
  1  3  2  0  0  0  0
  1  4  1  0  0  0  0
  1  5  1  0  0  0  0
  4  6  1  0  0  0  0
  4  7  1  0  0  0  0
  5  8  1  0  0  0  0
  5  9  1  0  0  0  0
  6 10  1  0  0  0  0
  6 20  1  0  0  0  0
  6 21  1  0  0  0  0
  7 11  1  0  0  0  0
  7 22  1  0  0  0  0
  7 23  1  0  0  0  0
  8 24  1  0  0  0  0
  8 25  1  0  0  0  0
  8 26  1  0  0  0  0
  9 27  1  0  0  0  0
  9 28  1  0  0  0  0
  9 29  1  0  0  0  0
 10 12  1  0  0  0  0
 10 30  1  0  0  0  0
 10 31  1  0  0  0  0
 11 12  1  0  0  0  0
 11 32  1  0  0  0  0
 11 33  1  0  0  0  0
 12 13  1  0  0  0  0
 13 14  2  0  0  0  0
 13 15  1  0  0  0  0
 14 16  1  0  0  0  0
 15 17  2  0  0  0  0
 15 34  1  0  0  0  0
 16 18  2  0  0  0  0
 16 19  1  0  0  0  0
 17 18  1  0  0  0  0
 17 35  1  0  0  0  0
 19 36  1  0  0  0  0
 19 37  1  0  0  0  0
 19 38  1  0  0  0  0
M  END
>  <Column 1>
Cc1nccc(N2CCN(S(=O)(=O)N(C)C)CC2)n1 ZINC000000004728

>  <Total Molweight>
285.371

>  <cLogP>
-0.0641

>  <cLogS>
-0.105

>  <H-Acceptors>
7

>  <H-Donors>
0

>  <Total Surface Area>
208.58

>  <MMFF94 Energy>
-149.26

> <Gold.Version>
5.8.1

> <Gold.Id.Protein>
ID|2FQT|mol2

> <Gold.PLP.Fitness>
45.2556

> <Gold.PLP.PLP>
-34.4831

> <Gold.PLP.part.hbond>
0.0000

> <Gold.PLP.part.metal>
-2.0000

> <Gold.PLP.part.buried>
-3.7820

> <Gold.PLP.part.nonpolar>
-28.7089

> <Gold.PLP.part.repulsive>
0.3376

> <Gold.PLP.ligand.clash>
0.0000

> <Gold.PLP.ligand.torsion>
1.0469

> <Gold.PLP.Chemscore.Hbond>
0.0000

> <Gold.PLP.Chemscore.CHOScore>
0.0000

> <Gold.PLP.Chemscore.Metal>
1.9852

> <Gold.Chemscore.Hbonds>
donor molecule, donor type, donor heavy atom, donor atom, acceptor molecule, acceptor atom, score
      P1  M  1222  1222       L1     2  0.99
      P1  M  1222  1222       L1     3  1.00

> <Gold.PLP.Chemscore.Internal.Correction>
0.9553

> <Gold.Protein.RotatedTorsions>
[ 1849  621  620  617 ] final  -27.56 input   60.00 | X-H torsion

> <Gold.Protein.ActiveResidues>
 HIS54   GLU57   HIS58   ALA61   PHE62   ILE76   ILE77   ASP78   ILE79   SER80  
 PRO81   GLN125  CYS126  GLY127  GLN128  HIS132  CO701  

> <Gold.Protein.RotatedAtoms>
  -19.6683   28.5402  -13.4137 H   0  0  0  0  0  0  0  0  0  0  0  0  # atno 1849 bound_to 621 
  -18.8030   27.2957  -14.0060 LP  0  0  0  0  0  0  0  0  0  0  0  0  # atno 2431 bound_to 621 
  -18.1049   28.3712  -12.9948 LP  0  0  0  0  0  0  0  0  0  0  0  0  # atno 2432 bound_to 621 

$$$$
Compound 47|DecoysActives|sdf|54|dock9
  -GOLD-   6112412123D 1   1.00000     0.00000

 22 23  0  0  0  0  0  0  0  0  1 V2000
  -24.3924   33.3602  -16.0727 S   0  0  0  0  0  0  0  0  0  0  0  0
  -23.0200   33.5320  -16.5139 O   0  0  0  0  0  0  0  0  0  0  0  0
  -24.6977   32.6993  -14.8154 O   0  0  0  0  0  0  0  0  0  0  0  0
  -25.1785   34.9540  -16.0729 C   0  0  0  0  0  0  0  0  0  0  0  0
  -25.1631   32.3864  -17.3149 C   0  0  0  0  0  0  0  0  0  0  0  0
  -24.3241   36.0093  -15.9971 N   0  0  0  0  0  0  0  0  0  0  0  0
  -26.5569   35.0516  -16.1858 C   0  0  0  0  0  0  0  0  0  0  0  0
  -25.4257   33.1014  -18.8464 S   0  0  0  0  0  0  0  0  0  0  0  0
  -25.6251   31.0896  -17.3282 C   0  0  0  0  0  0  0  0  0  0  0  0
  -24.8968   37.2306  -16.0173 C   0  0  0  0  0  0  0  0  0  0  0  0
  -27.1059   36.3289  -16.2065 C   0  0  0  0  0  0  0  0  0  0  0  0
  -26.1349   31.6384  -19.3970 C   0  0  0  0  0  0  0  0  0  0  0  0
  -26.1812   30.6662  -18.5205 N   0  0  0  0  0  0  0  0  0  0  0  0
  -26.2654   37.4376  -16.1195 C   0  0  0  0  0  0  0  0  0  0  0  0
  -26.6036   31.5192  -20.6422 N   0  0  0  0  0  0  0  0  0  0  0  0
  -27.1842   34.1691  -16.2556 H   0  0  0  0  0  0  0  0  0  0  0  0
  -25.5796   30.4066  -16.4880 H   0  0  0  0  0  0  0  0  0  0  0  0
  -24.2089   38.0695  -15.9482 H   0  0  0  0  0  0  0  0  0  0  0  0
  -28.1815   36.4626  -16.2900 H   0  0  0  0  0  0  0  0  0  0  0  0
  -26.6699   38.4446  -16.1315 H   0  0  0  0  0  0  0  0  0  0  0  0
  -26.5645   32.2736  -21.3126 H   0  0  0  0  0  0  0  0  0  0  0  0
  -27.0278   30.6478  -20.9329 H   0  0  0  0  0  0  0  0  0  0  0  0
  1  2  2  0  0  0  0
  1  3  2  0  0  0  0
  1  4  1  0  0  0  0
  1  5  1  0  0  0  0
  4  6  2  0  0  0  0
  4  7  1  0  0  0  0
  5  8  1  0  0  0  0
  5  9  2  0  0  0  0
  6 10  1  0  0  0  0
  7 11  2  0  0  0  0
  7 16  1  0  0  0  0
  8 12  1  0  0  0  0
  9 13  1  0  0  0  0
  9 17  1  0  0  0  0
 10 14  2  0  0  0  0
 10 18  1  0  0  0  0
 11 14  1  0  0  0  0
 11 19  1  0  0  0  0
 12 15  1  0  0  0  0
 12 13  2  0  0  0  0
 14 20  1  0  0  0  0
 15 21  1  0  0  0  0
 15 22  1  0  0  0  0
M  END
>  <Column 1>
Nc1ncc(S(=O)(=O)c2ccccn2)s1 ZINC000000004842

>  <Total Molweight>
241.295

>  <cLogP>
0.614

>  <cLogS>
-1.946

>  <H-Acceptors>
5

>  <H-Donors>
1

>  <Total Surface Area>
163.58

>  <MMFF94 Energy>
48.28

> <Gold.Version>
5.8.1

> <Gold.Id.Protein>
ID|2FQT|mol2

> <Gold.PLP.Fitness>
44.3301

> <Gold.PLP.PLP>
-35.1594

> <Gold.PLP.part.hbond>
-1.0000

> <Gold.PLP.part.metal>
-0.8069

> <Gold.PLP.part.buried>
-3.4945

> <Gold.PLP.part.nonpolar>
-30.4178

> <Gold.PLP.part.repulsive>
0.5043

> <Gold.PLP.ligand.clash>
0.0000

> <Gold.PLP.ligand.torsion>
2.2551

> <Gold.PLP.Chemscore.Hbond>
0.5440

> <Gold.PLP.Chemscore.CHOScore>
0.8795

> <Gold.PLP.Chemscore.Metal>
0.8963

> <Gold.Chemscore.Hbonds>
donor molecule, donor type, donor heavy atom, donor atom, acceptor molecule, acceptor atom, score
      L1  H    15    21       P1   954  0.54
      L1  C     9    17       P1   426  0.88
      P1  M  1222  1222       L1    13  0.90

> <Gold.PLP.Chemscore.Internal.Correction>
4.0323

> <Gold.Protein.RotatedTorsions>
[ 1849  621  620  617 ] final  150.21 input   60.00 | X-H torsion

> <Gold.Protein.ActiveResidues>
 HIS54   GLU57   HIS58   ALA61   PHE62   ILE76   ILE77   ASP78   ILE79   SER80  
 PRO81   GLN125  CYS126  GLY127  GLN128  HIS132  CO701  

> <Gold.Protein.RotatedAtoms>
  -18.0388   27.6228  -13.5039 H   0  0  0  0  0  0  0  0  0  0  0  0  # atno 1849 bound_to 621 
  -18.9531   28.8487  -12.9478 LP  0  0  0  0  0  0  0  0  0  0  0  0  # atno 2431 bound_to 621 
  -19.5957   27.7420  -13.9621 LP  0  0  0  0  0  0  0  0  0  0  0  0  # atno 2432 bound_to 621 

$$$$
Compound 48|DecoysActives|sdf|55|dock1
  -GOLD-   6112412123D 1   1.00000     0.00000

 25 27  0  0  0  0  0  0  0  0  1 V2000
  -26.6931   30.5701  -18.6580 O   0  0  0  0  0  0  0  0  0  0  0  0
  -26.8287   29.9287  -19.8876 N   0  0  0  0  0  0  0  0  0  0  0  0
  -25.8769   31.6450  -18.8727 C   0  0  0  0  0  0  0  0  0  0  0  0
  -26.0922   30.6789  -20.7077 C   0  0  0  0  0  0  0  0  0  0  0  0
  -25.4901   31.7508  -20.1254 N   0  0  0  0  0  0  0  0  0  0  0  0
  -25.4779   32.6447  -17.7609 C   0  0  1  0  0  0  0  0  0  0  0  0
  -25.8966   30.4843  -22.0073 N   0  0  0  0  0  0  0  0  0  0  0  0
  -26.2512   33.9623  -17.7897 C   0  0  0  0  0  0  0  0  0  0  0  0
  -25.3117   32.0307  -16.3418 C   0  0  0  0  0  0  0  0  0  0  0  0
  -23.9519   32.8842  -17.6309 C   0  0  0  0  0  0  0  0  0  0  0  0
  -26.0331   34.6842  -16.4584 C   0  0  0  0  0  0  0  0  0  0  0  0
  -24.1642   32.9831  -16.1462 N   0  0  1  0  0  0  0  0  0  0  0  0
  -24.6691   34.3420  -15.8362 C   0  0  0  0  0  0  0  0  0  0  0  0
  -26.3239   29.7027  -22.4827 H   0  0  0  0  0  0  0  0  0  0  0  0
  -25.3231   31.1113  -22.5527 H   0  0  0  0  0  0  0  0  0  0  0  0
  -25.9043   34.5884  -18.6206 H   0  0  0  0  0  0  0  0  0  0  0  0
  -27.3244   33.7939  -17.9368 H   0  0  0  0  0  0  0  0  0  0  0  0
  -24.9973   30.9779  -16.3207 H   0  0  0  0  0  0  0  0  0  0  0  0
  -26.1496   32.1306  -15.6435 H   0  0  0  0  0  0  0  0  0  0  0  0
  -23.3152   32.0347  -17.9143 H   0  0  0  0  0  0  0  0  0  0  0  0
  -23.5448   33.7764  -18.1203 H   0  0  0  0  0  0  0  0  0  0  0  0
  -26.1466   35.7668  -16.5821 H   0  0  0  0  0  0  0  0  0  0  0  0
  -26.8217   34.3714  -15.7615 H   0  0  0  0  0  0  0  0  0  0  0  0
  -23.9226   35.0795  -16.1573 H   0  0  0  0  0  0  0  0  0  0  0  0
  -24.7431   34.4455  -14.7472 H   0  0  0  0  0  0  0  0  0  0  0  0
  1  2  1  0  0  0  0
  1  3  1  0  0  0  0
  2  4  2  0  0  0  0
  3  5  2  0  0  0  0
  4  7  1  0  0  0  0
  4  5  1  0  0  0  0
  6  3  1  0  0  0  0
  6  8  1  0  0  0  0
  6  9  1  0  0  0  0
  6 10  1  0  0  0  0
  7 14  1  0  0  0  0
  7 15  1  0  0  0  0
  8 11  1  0  0  0  0
  8 16  1  0  0  0  0
  8 17  1  0  0  0  0
  9 18  1  0  0  0  0
  9 19  1  0  0  0  0
 10 12  1  0  0  0  0
 10 20  1  0  0  0  0
 10 21  1  0  0  0  0
 11 13  1  0  0  0  0
 11 22  1  0  0  0  0
 11 23  1  0  0  0  0
 12  9  1  0  0  0  0
 12 13  1  0  0  0  0
 13 24  1  0  0  0  0
 13 25  1  0  0  0  0
M  END
>  <Column 1>
Nc1noc(C23CCCN(C2)C3)n1 ZINC000000004880

>  <Total Molweight>
180.21

>  <cLogP>
-0.0969

>  <cLogS>
-1.236

>  <H-Acceptors>
5

>  <H-Donors>
1

>  <Total Surface Area>
131.5

>  <MMFF94 Energy>
-42.651

> <Gold.Version>
5.8.1

> <Gold.Id.Protein>
ID|2FQT|mol2

> <Gold.PLP.Fitness>
41.3559

> <Gold.PLP.PLP>
-27.1472

> <Gold.PLP.part.hbond>
-1.0000

> <Gold.PLP.part.metal>
-1.9456

> <Gold.PLP.part.buried>
-5.3813

> <Gold.PLP.part.nonpolar>
-19.5833

> <Gold.PLP.part.repulsive>
0.3610

> <Gold.PLP.ligand.clash>
0.0000

> <Gold.PLP.ligand.torsion>
0.6561

> <Gold.PLP.Chemscore.Hbond>
1.0000

> <Gold.PLP.Chemscore.CHOScore>
0.0000

> <Gold.PLP.Chemscore.Metal>
1.9865

> <Gold.Chemscore.Hbonds>
donor molecule, donor type, donor heavy atom, donor atom, acceptor molecule, acceptor atom, score
      P1  H   966  2177       L1     2  1.00
      P1  M  1222  1222       L1     1  1.00
      P1  M  1222  1222       L1     2  0.99

> <Gold.PLP.Chemscore.Internal.Correction>
0.6017

> <Gold.Protein.RotatedTorsions>
[ 1849  621  620  617 ] final   94.81 input   60.00 | X-H torsion

> <Gold.Protein.ActiveResidues>
 HIS54   GLU57   HIS58   ALA61   PHE62   ILE76   ILE77   ASP78   ILE79   SER80  
 PRO81   GLN125  CYS126  GLY127  GLN128  HIS132  CO701  

> <Gold.Protein.RotatedAtoms>
  -18.0908   28.3380  -13.0107 H   0  0  0  0  0  0  0  0  0  0  0  0  # atno 1849 bound_to 621 
  -19.6560   28.5700  -13.3910 LP  0  0  0  0  0  0  0  0  0  0  0  0  # atno 2431 bound_to 621 
  -18.8405   27.3005  -14.0156 LP  0  0  0  0  0  0  0  0  0  0  0  0  # atno 2432 bound_to 621 

$$$$
Compound 49|DecoysActives|sdf|56|dock3
  -GOLD-   6112412123D 1   1.00000     0.00000

 20 21  0  0  0  0  0  0  0  0  1 V2000
  -25.0027   38.4579  -17.3018 O   0  0  0  0  0  0  0  0  0  0  0  0
  -25.8081   37.5781  -17.0509 C   0  0  0  0  0  0  0  0  0  0  0  0
  -26.2749   36.6149  -17.9228 N   0  0  0  0  0  0  0  0  0  0  0  0
  -26.4570   37.2160  -15.6972 C   0  0  2  0  0  0  0  0  0  0  0  0
  -25.8057   36.4285  -19.2165 O   0  0  0  0  0  0  0  0  0  0  0  0
  -27.0781   35.6001  -17.2735 C   0  0  2  0  0  0  0  0  0  0  0  0
  -25.5900   36.2985  -14.9157 N   0  0  0  0  0  0  0  0  0  0  0  0
  -27.6999   36.4419  -16.1636 C   0  0  0  0  0  0  0  0  0  0  0  0
  -26.1992   34.5249  -16.6224 C   0  0  0  0  0  0  0  0  0  0  0  0
  -25.1313   35.1398  -15.7001 C   0  0  0  0  0  0  0  0  0  0  0  0
  -26.7138   38.1133  -15.1289 H   0  0  0  0  0  0  0  0  0  0  0  0
  -25.8800   37.3319  -19.5888 H   0  0  0  0  0  0  0  0  0  0  0  0
  -27.8183   35.1837  -17.9622 H   0  0  0  0  0  0  0  0  0  0  0  0
  -26.1070   35.9720  -14.0992 H   0  0  0  0  0  0  0  0  0  0  0  0
  -28.1769   35.8511  -15.3743 H   0  0  0  0  0  0  0  0  0  0  0  0
  -28.4466   37.1352  -16.5725 H   0  0  0  0  0  0  0  0  0  0  0  0
  -25.7014   33.9266  -17.3944 H   0  0  0  0  0  0  0  0  0  0  0  0
  -26.8347   33.8449  -16.0417 H   0  0  0  0  0  0  0  0  0  0  0  0
  -24.2674   35.4488  -16.3020 H   0  0  0  0  0  0  0  0  0  0  0  0
  -24.7514   34.3716  -15.0168 H   0  0  0  0  0  0  0  0  0  0  0  0
  1  2  2  0  0  0  0
  2  3  1  0  0  0  0
  2  4  1  0  0  0  0
  3  5  1  0  0  0  0
  3  6  1  0  0  0  0
  4  7  1  0  0  0  0
  4  8  1  0  0  0  0
  4 11  1  0  0  0  0
  5 12  1  0  0  0  0
  6  9  1  0  0  0  0
  6  8  1  0  0  0  0
  6 13  1  0  0  0  0
  7 10  1  0  0  0  0
  7 14  1  0  0  0  0
  8 15  1  0  0  0  0
  8 16  1  0  0  0  0
  9 10  1  0  0  0  0
  9 17  1  0  0  0  0
  9 18  1  0  0  0  0
 10 19  1  0  0  0  0
 10 20  1  0  0  0  0
M  END
>  <Column 1>
O=C1[C@H]2C[C@H](CC[NH2+]2)N1[O-] ZINC000000004888

>  <Total Molweight>
142.157

>  <cLogP>
-1.4333

>  <cLogS>
-0.702

>  <H-Acceptors>
4

>  <H-Donors>
2

>  <Total Surface Area>
98.64

>  <MMFF94 Energy>
70.864

> <Gold.Version>
5.8.1

> <Gold.Id.Protein>
ID|2FQT|mol2

> <Gold.PLP.Fitness>
29.5034

> <Gold.PLP.PLP>
-26.5034

> <Gold.PLP.part.hbond>
-1.4744

> <Gold.PLP.part.metal>
0.0000

> <Gold.PLP.part.buried>
-2.0085

> <Gold.PLP.part.nonpolar>
-22.9410

> <Gold.PLP.part.repulsive>
0.0000

> <Gold.PLP.ligand.clash>
0.0000

> <Gold.PLP.ligand.torsion>
0.0000

> <Gold.PLP.Chemscore.Hbond>
1.0000

> <Gold.PLP.Chemscore.CHOScore>
0.0000

> <Gold.PLP.Chemscore.Metal>
0.0000

> <Gold.Chemscore.Hbonds>
donor molecule, donor type, donor heavy atom, donor atom, acceptor molecule, acceptor atom, score
      L1  H     7    14       P1   431  1.00

> <Gold.PLP.Chemscore.Internal.Correction>
0.0000

> <Gold.Protein.RotatedTorsions>
[ 1849  621  620  617 ] final  106.55 input   60.00 | X-H torsion

> <Gold.Protein.ActiveResidues>
 HIS54   GLU57   HIS58   ALA61   PHE62   ILE76   ILE77   ASP78   ILE79   SER80  
 PRO81   GLN125  CYS126  GLY127  GLN128  HIS132  CO701  

> <Gold.Protein.RotatedAtoms>
  -18.0118   28.1843  -13.0931 H   0  0  0  0  0  0  0  0  0  0  0  0  # atno 1849 bound_to 621 
  -19.5506   28.6818  -13.2746 LP  0  0  0  0  0  0  0  0  0  0  0  0  # atno 2431 bound_to 621 
  -19.0254   27.3435  -14.0490 LP  0  0  0  0  0  0  0  0  0  0  0  0  # atno 2432 bound_to 621 

$$$$
Compound 50|DecoysActives|sdf|57|dock15
  -GOLD-   6112412123D 1   1.00000     0.00000

 27 29  0  0  0  0  0  0  0  0  1 V2000
  -26.7518   29.7656  -19.8923 N   0  0  0  0  0  0  0  0  0  0  0  0
  -26.6365   29.1863  -18.6699 N   0  0  0  0  0  0  0  0  0  0  0  0
  -26.1484   30.9458  -20.1328 C   0  0  0  0  0  0  0  0  0  0  0  0
  -25.9143   29.8209  -17.7318 C   0  0  0  0  0  0  0  0  0  0  0  0
  -25.4216   31.6054  -19.2219 N   0  0  0  0  0  0  0  0  0  0  0  0
  -26.2717   31.5192  -21.3674 N   0  0  0  0  0  0  0  0  0  0  0  0
  -25.3054   31.0288  -18.0011 C   0  0  0  0  0  0  0  0  0  0  0  0
  -24.4912   31.7731  -16.9892 C   0  0  1  0  0  0  0  0  0  0  0  0
  -23.9362   33.1520  -17.3370 C   0  0  0  0  0  0  0  0  0  0  0  0
  -25.2685   32.1028  -15.7008 C   0  0  0  0  0  0  0  0  0  0  0  0
  -23.1942   31.0437  -16.5907 C   0  0  0  0  0  0  0  0  0  0  0  0
  -23.2671   33.3619  -16.0270 N   0  0  1  0  0  0  0  0  0  0  0  0
  -24.3926   33.1847  -15.0679 C   0  0  0  0  0  0  0  0  0  0  0  0
  -22.3901   32.1623  -15.9270 C   0  0  0  0  0  0  0  0  0  0  0  0
  -25.8558   29.3152  -16.7780 H   0  0  0  0  0  0  0  0  0  0  0  0
  -26.8151   31.0319  -22.0578 H   0  0  0  0  0  0  0  0  0  0  0  0
  -25.8170   32.3997  -21.5350 H   0  0  0  0  0  0  0  0  0  0  0  0
  -23.2222   33.1555  -18.1702 H   0  0  0  0  0  0  0  0  0  0  0  0
  -24.7030   33.9115  -17.5349 H   0  0  0  0  0  0  0  0  0  0  0  0
  -25.3840   31.2321  -15.0460 H   0  0  0  0  0  0  0  0  0  0  0  0
  -26.2666   32.5008  -15.9219 H   0  0  0  0  0  0  0  0  0  0  0  0
  -23.3764   30.2069  -15.9073 H   0  0  0  0  0  0  0  0  0  0  0  0
  -22.6605   30.6596  -17.4690 H   0  0  0  0  0  0  0  0  0  0  0  0
  -24.0474   32.9146  -14.0638 H   0  0  0  0  0  0  0  0  0  0  0  0
  -24.9502   34.1245  -14.9782 H   0  0  0  0  0  0  0  0  0  0  0  0
  -21.4583   32.3415  -16.4762 H   0  0  0  0  0  0  0  0  0  0  0  0
  -22.1174   31.9291  -14.8918 H   0  0  0  0  0  0  0  0  0  0  0  0
  1  2  2  0  0  0  0
  1  3  1  0  0  0  0
  2  4  1  0  0  0  0
  3  5  2  0  0  0  0
  3  6  1  0  0  0  0
  4  7  2  0  0  0  0
  4 15  1  0  0  0  0
  5  7  1  0  0  0  0
  6 16  1  0  0  0  0
  6 17  1  0  0  0  0
  8  7  1  0  0  0  0
  8  9  1  0  0  0  0
  8 10  1  0  0  0  0
  8 11  1  0  0  0  0
  9 18  1  0  0  0  0
  9 19  1  0  0  0  0
 10 13  1  0  0  0  0
 10 20  1  0  0  0  0
 10 21  1  0  0  0  0
 11 14  1  0  0  0  0
 11 22  1  0  0  0  0
 11 23  1  0  0  0  0
 12  9  1  0  0  0  0
 12 13  1  0  0  0  0
 12 14  1  0  0  0  0
 13 24  1  0  0  0  0
 13 25  1  0  0  0  0
 14 26  1  0  0  0  0
 14 27  1  0  0  0  0
M  END
>  <Column 1>
Nc1nncc(C23CCN(CC2)C3)n1 ZINC000000005200

>  <Total Molweight>
191.237

>  <cLogP>
-0.6111

>  <cLogS>
-1.047

>  <H-Acceptors>
5

>  <H-Donors>
1

>  <Total Surface Area>
140.57

>  <MMFF94 Energy>
2.1934

> <Gold.Version>
5.8.1

> <Gold.Id.Protein>
ID|2FQT|mol2

> <Gold.PLP.Fitness>
41.5139

> <Gold.PLP.PLP>
-23.9902

> <Gold.PLP.part.hbond>
-2.0000

> <Gold.PLP.part.metal>
-1.9613

> <Gold.PLP.part.buried>
0.2406

> <Gold.PLP.part.nonpolar>
-20.5869

> <Gold.PLP.part.repulsive>
0.3231

> <Gold.PLP.ligand.clash>
0.0000

> <Gold.PLP.ligand.torsion>
0.0651

> <Gold.PLP.Chemscore.Hbond>
1.0000

> <Gold.PLP.Chemscore.CHOScore>
1.0000

> <Gold.PLP.Chemscore.Metal>
1.9399

> <Gold.Chemscore.Hbonds>
donor molecule, donor type, donor heavy atom, donor atom, acceptor molecule, acceptor atom, score
      P1  H   966  2177       L1     1  1.00
      L1  C     4    15       P1   426  1.00
      P1  M  1222  1222       L1     1  0.94
      P1  M  1222  1222       L1     2  1.00

> <Gold.PLP.Chemscore.Internal.Correction>
0.0143

> <Gold.Protein.RotatedTorsions>
[ 1849  621  620  617 ] final -106.91 input   60.00 | X-H torsion

> <Gold.Protein.ActiveResidues>
 HIS54   GLU57   HIS58   ALA61   PHE62   ILE76   ILE77   ASP78   ILE79   SER80  
 PRO81   GLN125  CYS126  GLY127  GLN128  HIS132  CO701  

> <Gold.Protein.RotatedAtoms>
  -19.4035   27.5502  -14.0295 H   0  0  0  0  0  0  0  0  0  0  0  0  # atno 1849 bound_to 621 
  -17.9599   27.8290  -13.3321 LP  0  0  0  0  0  0  0  0  0  0  0  0  # atno 2431 bound_to 621 
  -19.2147   28.8348  -13.0486 LP  0  0  0  0  0  0  0  0  0  0  0  0  # atno 2432 bound_to 621 

$$$$
Compound 51|DecoysActives|sdf|58|dock4
  -GOLD-   6112412123D 1   1.00000     0.00000

 24 25  0  0  0  0  0  0  0  0  1 V2000
  -27.0112   29.7900  -19.9104 O   0  0  0  0  0  0  0  0  0  0  0  0
  -26.1983   30.6023  -20.3227 C   0  0  0  0  0  0  0  0  0  0  0  0
  -25.4399   31.4643  -19.5827 N   0  0  0  0  0  0  0  0  0  0  0  0
  -25.8995   30.8816  -21.7568 C   0  0  0  0  0  0  0  0  0  0  0  0
  -24.5884   32.2614  -20.3772 O   0  0  0  0  0  0  0  0  0  0  0  0
  -25.3626   31.6281  -18.1463 C   0  0  0  0  0  0  0  0  0  0  0  0
  -24.5681   31.5917  -21.6420 C   0  0  0  0  0  0  0  0  0  0  0  0
  -25.7460   33.0168  -17.7846 C   0  0  0  0  0  0  0  0  0  0  0  0
  -25.5551   33.6027  -16.5550 N   0  0  0  0  0  0  0  0  0  0  0  0
  -26.3477   34.0027  -18.5413 C   0  0  0  0  0  0  0  0  0  0  0  0
  -26.0283   34.8830  -16.6277 C   0  0  0  0  0  0  0  0  0  0  0  0
  -24.9798   33.0064  -15.3737 C   0  0  0  0  0  0  0  0  0  0  0  0
  -26.5087   35.1546  -17.8187 N   0  0  0  0  0  0  0  0  0  0  0  0
  -25.8368   29.9707  -22.3550 H   0  0  0  0  0  0  0  0  0  0  0  0
  -26.6764   31.5444  -22.1500 H   0  0  0  0  0  0  0  0  0  0  0  0
  -24.3374   31.4072  -17.8310 H   0  0  0  0  0  0  0  0  0  0  0  0
  -26.0296   30.9036  -17.6688 H   0  0  0  0  0  0  0  0  0  0  0  0
  -24.4188   32.3197  -22.4442 H   0  0  0  0  0  0  0  0  0  0  0  0
  -23.7307   30.8846  -21.6449 H   0  0  0  0  0  0  0  0  0  0  0  0
  -26.6721   33.9393  -19.5723 H   0  0  0  0  0  0  0  0  0  0  0  0
  -26.0012   35.5695  -15.7912 H   0  0  0  0  0  0  0  0  0  0  0  0
  -25.7370   32.3726  -14.9076 H   0  0  0  0  0  0  0  0  0  0  0  0
  -24.6805   33.7967  -14.6797 H   0  0  0  0  0  0  0  0  0  0  0  0
  -24.0993   32.4248  -15.6541 H   0  0  0  0  0  0  0  0  0  0  0  0
  1  2  2  0  0  0  0
  2  3  1  0  0  0  0
  2  4  1  0  0  0  0
  3  5  1  0  0  0  0
  3  6  1  0  0  0  0
  4  7  1  0  0  0  0
  4 14  1  0  0  0  0
  4 15  1  0  0  0  0
  5  7  1  0  0  0  0
  6  8  1  0  0  0  0
  6 16  1  0  0  0  0
  6 17  1  0  0  0  0
  7 18  1  0  0  0  0
  7 19  1  0  0  0  0
  8  9  1  0  0  0  0
  8 10  2  0  0  0  0
  9 11  1  0  0  0  0
  9 12  1  0  0  0  0
 10 13  1  0  0  0  0
 10 20  1  0  0  0  0
 11 13  2  0  0  0  0
 11 21  1  0  0  0  0
 12 22  1  0  0  0  0
 12 23  1  0  0  0  0
 12 24  1  0  0  0  0
M  END
>  <Column 1>
Cn1cncc1CN1OCCC1=O ZINC000000005245

>  <Total Molweight>
181.194

>  <cLogP>
-1.0507

>  <cLogS>
-0.174

>  <H-Acceptors>
5

>  <H-Donors>
0

>  <Total Surface Area>
139.31

>  <MMFF94 Energy>
1.2386

> <Gold.Version>
5.8.1

> <Gold.Id.Protein>
ID|2FQT|mol2

> <Gold.PLP.Fitness>
43.0419

> <Gold.PLP.PLP>
-31.3279

> <Gold.PLP.part.hbond>
-1.0000

> <Gold.PLP.part.metal>
-1.0000

> <Gold.PLP.part.buried>
-4.4249

> <Gold.PLP.part.nonpolar>
-25.6309

> <Gold.PLP.part.repulsive>
0.1632

> <Gold.PLP.ligand.clash>
0.0000

> <Gold.PLP.ligand.torsion>
0.1439

> <Gold.PLP.Chemscore.Hbond>
1.0000

> <Gold.PLP.Chemscore.CHOScore>
0.9999

> <Gold.PLP.Chemscore.Metal>
0.9998

> <Gold.Chemscore.Hbonds>
donor molecule, donor type, donor heavy atom, donor atom, acceptor molecule, acceptor atom, score
      P1  H   966  2177       L1     1  1.00
      L1  C    10    20       P1   954  1.00
      P1  M  1222  1222       L1     1  1.00

> <Gold.PLP.Chemscore.Internal.Correction>
0.0033

> <Gold.Protein.RotatedTorsions>
[ 1849  621  620  617 ] final   72.95 input   60.00 | X-H torsion

> <Gold.Protein.ActiveResidues>
 HIS54   GLU57   HIS58   ALA61   PHE62   ILE76   ILE77   ASP78   ILE79   SER80  
 PRO81   GLN125  CYS126  GLY127  GLN128  HIS132  CO701  

> <Gold.Protein.RotatedAtoms>
  -18.3203   28.5896  -12.9104 H   0  0  0  0  0  0  0  0  0  0  0  0  # atno 1849 bound_to 621 
  -19.7612   28.3104  -13.6132 LP  0  0  0  0  0  0  0  0  0  0  0  0  # atno 2431 bound_to 621 
  -18.5042   27.3067  -13.8944 LP  0  0  0  0  0  0  0  0  0  0  0  0  # atno 2432 bound_to 621 

$$$$
Compound 52|DecoysActives|sdf|59|dock2
  -GOLD-   6112412123D 1   1.00000     0.00000

 26 27  0  0  0  0  0  0  0  0  1 V2000
  -25.4189   29.6889  -19.1712 S   0  0  1  0  0  0  0  0  0  0  0  0
  -26.8260   29.3570  -19.5794 O   0  0  0  0  0  0  0  0  0  0  0  0
  -25.4839   31.2065  -18.2526 C   0  0  0  0  0  0  0  0  0  0  0  0
  -24.9796   28.5918  -17.8005 C   0  0  0  0  0  0  0  0  0  0  0  0
  -26.1379   32.4128  -18.8130 C   0  0  0  0  0  0  0  0  0  0  0  0
  -24.9815   31.2916  -17.0146 C   0  0  0  0  0  0  0  0  0  0  0  0
  -26.6364   32.4152  -19.9346 O   0  0  0  0  0  0  0  0  0  0  0  0
  -26.1670   33.6340  -17.9659 C   0  0  0  0  0  0  0  0  0  0  0  0
  -24.9928   32.4150  -16.2026 N   0  0  0  0  0  0  0  0  0  0  0  0
  -25.5897   33.6059  -16.6747 C   0  0  0  0  0  0  0  0  0  0  0  0
  -26.7733   34.7938  -18.4773 C   0  0  0  0  0  0  0  0  0  0  0  0
  -24.4104   32.3978  -14.8590 C   0  0  0  0  0  0  0  0  0  0  0  0
  -25.6462   34.7894  -15.9225 C   0  0  0  0  0  0  0  0  0  0  0  0
  -26.8131   35.9508  -17.7062 C   0  0  0  0  0  0  0  0  0  0  0  0
  -26.2497   35.9368  -16.4384 C   0  0  0  0  0  0  0  0  0  0  0  0
  -26.2851   37.0484  -15.6919 F   0  0  0  0  0  0  0  0  0  0  0  0
  -23.9561   28.7840  -17.4736 H   0  0  0  0  0  0  0  0  0  0  0  0
  -25.6746   28.7313  -16.9687 H   0  0  0  0  0  0  0  0  0  0  0  0
  -25.0474   27.5595  -18.1531 H   0  0  0  0  0  0  0  0  0  0  0  0
  -24.5077   30.4260  -16.5545 H   0  0  0  0  0  0  0  0  0  0  0  0
  -27.2131   34.7930  -19.4727 H   0  0  0  0  0  0  0  0  0  0  0  0
  -23.5975   33.1277  -14.7765 H   0  0  0  0  0  0  0  0  0  0  0  0
  -25.1721   32.6105  -14.1004 H   0  0  0  0  0  0  0  0  0  0  0  0
  -23.9840   31.4175  -14.6166 H   0  0  0  0  0  0  0  0  0  0  0  0
  -25.2292   34.8584  -14.9237 H   0  0  0  0  0  0  0  0  0  0  0  0
  -27.2774   36.8567  -18.0829 H   0  0  0  0  0  0  0  0  0  0  0  0
  1  2  2  0  0  0  0
  1  3  1  0  0  0  0
  1  4  1  0  0  0  0
  3  5  1  0  0  0  0
  3  6  2  0  0  0  0
  4 17  1  0  0  0  0
  4 18  1  0  0  0  0
  4 19  1  0  0  0  0
  5  7  2  0  0  0  0
  5  8  1  0  0  0  0
  6  9  1  0  0  0  0
  6 20  1  0  0  0  0
  8 10  2  0  0  0  0
  8 11  1  0  0  0  0
  9 12  1  0  0  0  0
  9 10  1  0  0  0  0
 10 13  1  0  0  0  0
 11 14  2  0  0  0  0
 11 21  1  0  0  0  0
 12 22  1  0  0  0  0
 12 23  1  0  0  0  0
 12 24  1  0  0  0  0
 13 15  2  0  0  0  0
 13 25  1  0  0  0  0
 14 15  1  0  0  0  0
 14 26  1  0  0  0  0
 15 16  1  0  0  0  0
M  END
>  <Column 1>
Cn1cc([S@@](C)=O)c(=O)c2ccc(F)cc21 ZINC000000005432

>  <Total Molweight>
239.269

>  <cLogP>
-0.256

>  <cLogS>
-2.572

>  <H-Acceptors>
3

>  <H-Donors>
0

>  <Total Surface Area>
166.11

>  <MMFF94 Energy>
47.661

> <Gold.Version>
5.8.1

> <Gold.Id.Protein>
ID|2FQT|mol2

> <Gold.PLP.Fitness>
51.1475

> <Gold.PLP.PLP>
-42.2708

> <Gold.PLP.part.hbond>
-1.0000

> <Gold.PLP.part.metal>
-1.0000

> <Gold.PLP.part.buried>
-6.4345

> <Gold.PLP.part.nonpolar>
-38.3317

> <Gold.PLP.part.repulsive>
4.1053

> <Gold.PLP.ligand.clash>
0.0000

> <Gold.PLP.ligand.torsion>
0.5432

> <Gold.PLP.Chemscore.Hbond>
1.0000

> <Gold.PLP.Chemscore.CHOScore>
0.0000

> <Gold.PLP.Chemscore.Metal>
1.0000

> <Gold.Chemscore.Hbonds>
donor molecule, donor type, donor heavy atom, donor atom, acceptor molecule, acceptor atom, score
      P1  H   966  2177       L1     2  1.00
      P1  M  1222  1222       L1     2  1.00

> <Gold.PLP.Chemscore.Internal.Correction>
0.9630

> <Gold.Protein.RotatedTorsions>
[ 1849  621  620  617 ] final   63.31 input   60.00 | X-H torsion

> <Gold.Protein.ActiveResidues>
 HIS54   GLU57   HIS58   ALA61   PHE62   ILE76   ILE77   ASP78   ILE79   SER80  
 PRO81   GLN125  CYS126  GLY127  GLN128  HIS132  CO701  

> <Gold.Protein.RotatedAtoms>
  -18.4487   28.6787  -12.8913 H   0  0  0  0  0  0  0  0  0  0  0  0  # atno 1849 bound_to 621 
  -19.7667   28.1824  -13.7066 LP  0  0  0  0  0  0  0  0  0  0  0  0  # atno 2431 bound_to 621 
  -18.3694   27.3450  -13.8202 LP  0  0  0  0  0  0  0  0  0  0  0  0  # atno 2432 bound_to 621 

$$$$
Compound 53|DecoysActives|sdf|60|dock9
  -GOLD-   6112412123D 1   1.00000     0.00000

 14 14  0  0  0  0  0  0  0  0  1 V2000
  -24.3316   31.3022  -16.6185 O   0  0  0  0  0  0  0  0  0  0  0  0
  -24.9002   32.3876  -16.5924 C   0  0  0  0  0  0  0  0  0  0  0  0
  -25.5431   32.9059  -17.6795 N   0  0  0  0  0  0  0  0  0  0  0  0
  -24.9318   33.1623  -15.4655 N   0  0  0  0  0  0  0  0  0  0  0  0
  -26.1974   34.1102  -17.7200 C   0  0  0  0  0  0  0  0  0  0  0  0
  -25.5563   34.3786  -15.3988 C   0  0  0  0  0  0  0  0  0  0  0  0
  -26.7510   34.5006  -18.7439 O   0  0  0  0  0  0  0  0  0  0  0  0
  -26.1927   34.9045  -16.4544 C   0  0  0  0  0  0  0  0  0  0  0  0
  -26.8377   36.1694  -16.3720 C   0  0  0  0  0  0  0  0  0  0  0  0
  -27.3828   37.2373  -16.3029 C   0  0  0  0  0  0  0  0  0  0  0  0
  -25.5363   32.3566  -18.5244 H   0  0  0  0  0  0  0  0  0  0  0  0
  -24.4554   32.7810  -14.6554 H   0  0  0  0  0  0  0  0  0  0  0  0
  -25.5038   34.8880  -14.4411 H   0  0  0  0  0  0  0  0  0  0  0  0
  -27.8762   38.1802  -16.2514 H   0  0  0  0  0  0  0  0  0  0  0  0
  1  2  2  0  0  0  0
  2  3  1  0  0  0  0
  2  4  1  0  0  0  0
  3  5  1  0  0  0  0
  3 11  1  0  0  0  0
  4  6  1  0  0  0  0
  4 12  1  0  0  0  0
  5  7  2  0  0  0  0
  5  8  1  0  0  0  0
  6  8  2  0  0  0  0
  6 13  1  0  0  0  0
  8  9  1  0  0  0  0
  9 10  3  0  0  0  0
 10 14  1  0  0  0  0
M  END
>  <Column 1>
C#Cc1c[nH]c(=O)[nH]c1=O ZINC000000005467

>  <Total Molweight>
136.11

>  <cLogP>
-0.9801

>  <cLogS>
-1.7

>  <H-Acceptors>
4

>  <H-Donors>
2

>  <Total Surface Area>
106.94

>  <MMFF94 Energy>
-70.803

> <Gold.Version>
5.8.1

> <Gold.Id.Protein>
ID|2FQT|mol2

> <Gold.PLP.Fitness>
30.5713

> <Gold.PLP.PLP>
-27.5713

> <Gold.PLP.part.hbond>
0.0000

> <Gold.PLP.part.metal>
0.0000

> <Gold.PLP.part.buried>
-4.7838

> <Gold.PLP.part.nonpolar>
-23.3325

> <Gold.PLP.part.repulsive>
0.3866

> <Gold.PLP.ligand.clash>
0.0000

> <Gold.PLP.ligand.torsion>
0.0000

> <Gold.PLP.Chemscore.Hbond>
0.0000

> <Gold.PLP.Chemscore.CHOScore>
1.0000

> <Gold.PLP.Chemscore.Metal>
0.0000

> <Gold.Chemscore.Hbonds>
donor molecule, donor type, donor heavy atom, donor atom, acceptor molecule, acceptor atom, score
      L1  C     6    13       P1   431  1.00

> <Gold.PLP.Chemscore.Internal.Correction>
0.0000

> <Gold.Protein.RotatedTorsions>
[ 1849  621  620  617 ] final  -73.39 input   60.00 | X-H torsion

> <Gold.Protein.ActiveResidues>
 HIS54   GLU57   HIS58   ALA61   PHE62   ILE76   ILE77   ASP78   ILE79   SER80  
 PRO81   GLN125  CYS126  GLY127  GLN128  HIS132  CO701  

> <Gold.Protein.RotatedAtoms>
  -19.7106   27.9550  -13.8467 H   0  0  0  0  0  0  0  0  0  0  0  0  # atno 1849 bound_to 621 
  -18.1709   27.4588  -13.6700 LP  0  0  0  0  0  0  0  0  0  0  0  0  # atno 2431 bound_to 621 
  -18.6944   28.7973  -12.8948 LP  0  0  0  0  0  0  0  0  0  0  0  0  # atno 2432 bound_to 621 

$$$$
Compound 54|DecoysActives|sdf|61|dock2
  -GOLD-   6112412133D 1   1.00000     0.00000

 21 21  0  0  0  0  0  0  0  0  1 V2000
  -26.7965   30.0700  -19.8893 O   0  0  0  0  0  0  0  0  0  0  0  0
  -26.6446   30.8630  -18.7386 N   0  0  0  0  0  0  0  0  0  0  0  0
  -26.1924   32.0471  -19.0444 C   0  0  0  0  0  0  0  0  0  0  0  0
  -25.9167   32.4102  -20.3329 N   0  0  0  0  0  0  0  0  0  0  0  0
  -25.9622   33.0234  -17.9361 C   0  0  0  0  0  0  0  0  0  0  0  0
  -26.3554   34.3625  -18.0761 C   0  0  0  0  0  0  0  0  0  0  0  0
  -25.3571   32.5829  -16.7476 C   0  0  0  0  0  0  0  0  0  0  0  0
  -26.1245   35.2474  -17.0278 C   0  0  0  0  0  0  0  0  0  0  0  0
  -25.1300   33.4848  -15.7095 C   0  0  0  0  0  0  0  0  0  0  0  0
  -26.4924   36.5644  -17.1036 O   0  0  0  0  0  0  0  0  0  0  0  0
  -25.5101   34.8155  -15.8521 C   0  0  0  0  0  0  0  0  0  0  0  0
  -24.5358   33.0726  -14.5508 O   0  0  0  0  0  0  0  0  0  0  0  0
  -25.2966   35.7167  -14.8449 O   0  0  0  0  0  0  0  0  0  0  0  0
  -25.9258   29.6357  -19.9509 H   0  0  0  0  0  0  0  0  0  0  0  0
  -26.0882   31.6956  -21.0315 H   0  0  0  0  0  0  0  0  0  0  0  0
  -25.3663   33.2154  -20.5859 H   0  0  0  0  0  0  0  0  0  0  0  0
  -26.8546   34.6956  -18.9787 H   0  0  0  0  0  0  0  0  0  0  0  0
  -25.0621   31.5422  -16.6498 H   0  0  0  0  0  0  0  0  0  0  0  0
  -25.9219   37.0106  -17.7526 H   0  0  0  0  0  0  0  0  0  0  0  0
  -25.2098   32.9885  -13.8587 H   0  0  0  0  0  0  0  0  0  0  0  0
  -25.8674   35.4158  -14.1126 H   0  0  0  0  0  0  0  0  0  0  0  0
  1  2  1  0  0  0  0
  1 14  1  0  0  0  0
  2  3  2  0  0  0  0
  3  4  1  0  0  0  0
  3  5  1  0  0  0  0
  4 15  1  0  0  0  0
  4 16  1  0  0  0  0
  5  6  2  0  0  0  0
  5  7  1  0  0  0  0
  6  8  1  0  0  0  0
  6 17  1  0  0  0  0
  7  9  2  0  0  0  0
  7 18  1  0  0  0  0
  8 10  1  0  0  0  0
  8 11  2  0  0  0  0
  9 12  1  0  0  0  0
  9 11  1  0  0  0  0
 10 19  1  0  0  0  0
 11 13  1  0  0  0  0
 12 20  1  0  0  0  0
 13 21  1  0  0  0  0
M  END
>  <Column 1>
N/C(=N\O)c1cc(O)c(O)c(O)c1 ZINC000000005721

>  <Total Molweight>
184.151

>  <cLogP>
0.3312

>  <cLogS>
-1.192

>  <H-Acceptors>
6

>  <H-Donors>
5

>  <Total Surface Area>
130.15

>  <MMFF94 Energy>
2.6654

> <Gold.Version>
5.8.1

> <Gold.Id.Protein>
ID|2FQT|mol2

> <Gold.PLP.Fitness>
45.0865

> <Gold.PLP.PLP>
-28.2749

> <Gold.PLP.part.hbond>
-3.7171

> <Gold.PLP.part.metal>
-2.0000

> <Gold.PLP.part.buried>
-2.9273

> <Gold.PLP.part.nonpolar>
-21.4815

> <Gold.PLP.part.repulsive>
0.1440

> <Gold.PLP.ligand.clash>
0.0000

> <Gold.PLP.ligand.torsion>
0.7051

> <Gold.PLP.Chemscore.Hbond>
2.1352

> <Gold.PLP.Chemscore.CHOScore>
0.0000

> <Gold.PLP.Chemscore.Metal>
1.9693

> <Gold.Chemscore.Hbonds>
donor molecule, donor type, donor heavy atom, donor atom, acceptor molecule, acceptor atom, score
      L1  H    12    20       P1   422  0.14
      L1  H    13    21       P1   431  1.00
      P1  H   966  2177       L1     1  1.00
      P1  M  1222  1222       L1     1  0.97
      P1  M  1222  1222       L1     2  1.00

> <Gold.PLP.Chemscore.Internal.Correction>
0.0001

> <Gold.Protein.RotatedTorsions>
[ 1849  621  620  617 ] final -176.89 input   60.00 | X-H torsion

> <Gold.Protein.ActiveResidues>
 HIS54   GLU57   HIS58   ALA61   PHE62   ILE76   ILE77   ASP78   ILE79   SER80  
 PRO81   GLN125  CYS126  GLY127  GLN128  HIS132  CO701  

> <Gold.Protein.RotatedAtoms>
  -18.3708   27.3498  -13.8144 H   0  0  0  0  0  0  0  0  0  0  0  0  # atno 1849 bound_to 621 
  -18.4480   28.6860  -12.8888 LP  0  0  0  0  0  0  0  0  0  0  0  0  # atno 2431 bound_to 621 
  -19.7665   28.1797  -13.7084 LP  0  0  0  0  0  0  0  0  0  0  0  0  # atno 2432 bound_to 621 

$$$$
Compound 55|DecoysActives|sdf|62|dock1
  -GOLD-   6112412133D 1   1.00000     0.00000

 35 36  0  0  0  0  0  0  0  0  1 V2000
  -26.0554   29.6182  -19.0325 S   0  0  0  0  0  0  0  0  0  0  0  0
  -27.0648   29.5172  -20.0586 O   0  0  0  0  0  0  0  0  0  0  0  0
  -24.6874   29.2272  -19.2682 O   0  0  0  0  0  0  0  0  0  0  0  0
  -26.0897   31.1666  -18.4101 N   0  0  0  0  0  0  0  0  0  0  0  0
  -26.6480   28.7358  -17.7365 N   0  0  0  0  0  0  0  0  0  0  0  0
  -26.1511   32.3055  -19.3590 C   0  0  0  0  0  0  0  0  0  0  0  0
  -25.1626   31.4568  -17.2794 C   0  0  0  0  0  0  0  0  0  0  0  0
  -26.4399   27.2841  -17.7610 C   0  0  0  0  0  0  0  0  0  0  0  0
  -26.6192   33.5839  -18.6357 C   0  0  0  0  0  0  0  0  0  0  0  0
  -25.6010   32.7303  -16.5331 C   0  0  0  0  0  0  0  0  0  0  0  0
  -25.7786   33.8693  -17.4588 N   0  0  0  0  0  0  0  0  0  0  0  0
  -25.8672   35.1251  -16.8594 C   0  0  0  0  0  0  0  0  0  0  0  0
  -24.7301   35.7985  -16.5991 N   0  0  0  0  0  0  0  0  0  0  0  0
  -27.0911   35.7002  -16.5708 C   0  0  0  0  0  0  0  0  0  0  0  0
  -24.8173   37.0115  -16.0200 C   0  0  0  0  0  0  0  0  0  0  0  0
  -27.0849   36.9504  -15.9936 C   0  0  0  0  0  0  0  0  0  0  0  0
  -25.9658   37.6284  -15.7037 N   0  0  0  0  0  0  0  0  0  0  0  0
  -23.5396   37.7436  -15.7555 C   0  0  0  0  0  0  0  0  0  0  0  0
  -27.6299   28.9903  -17.6145 H   0  0  0  0  0  0  0  0  0  0  0  0
  -26.8525   32.0937  -20.1721 H   0  0  0  0  0  0  0  0  0  0  0  0
  -25.1583   32.4788  -19.7893 H   0  0  0  0  0  0  0  0  0  0  0  0
  -25.1518   30.6275  -16.5649 H   0  0  0  0  0  0  0  0  0  0  0  0
  -24.1461   31.5892  -17.6691 H   0  0  0  0  0  0  0  0  0  0  0  0
  -25.3932   27.0221  -17.9240 H   0  0  0  0  0  0  0  0  0  0  0  0
  -27.0650   26.8226  -18.5307 H   0  0  0  0  0  0  0  0  0  0  0  0
  -26.7426   26.8725  -16.7935 H   0  0  0  0  0  0  0  0  0  0  0  0
  -27.6604   33.4625  -18.3102 H   0  0  0  0  0  0  0  0  0  0  0  0
  -26.5940   34.3978  -19.3671 H   0  0  0  0  0  0  0  0  0  0  0  0
  -24.8307   32.9495  -15.7830 H   0  0  0  0  0  0  0  0  0  0  0  0
  -26.5462   32.5374  -16.0087 H   0  0  0  0  0  0  0  0  0  0  0  0
  -28.0304   35.2231  -16.8075 H   0  0  0  0  0  0  0  0  0  0  0  0
  -28.0131   37.4581  -15.7489 H   0  0  0  0  0  0  0  0  0  0  0  0
  -23.6455   38.4035  -14.8890 H   0  0  0  0  0  0  0  0  0  0  0  0
  -22.7271   37.0392  -15.5518 H   0  0  0  0  0  0  0  0  0  0  0  0
  -23.2732   38.3466  -16.6283 H   0  0  0  0  0  0  0  0  0  0  0  0
  1  2  2  0  0  0  0
  1  3  2  0  0  0  0
  1  4  1  0  0  0  0
  1  5  1  0  0  0  0
  4  6  1  0  0  0  0
  4  7  1  0  0  0  0
  5  8  1  0  0  0  0
  5 19  1  0  0  0  0
  6  9  1  0  0  0  0
  6 20  1  0  0  0  0
  6 21  1  0  0  0  0
  7 10  1  0  0  0  0
  7 22  1  0  0  0  0
  7 23  1  0  0  0  0
  8 24  1  0  0  0  0
  8 25  1  0  0  0  0
  8 26  1  0  0  0  0
  9 11  1  0  0  0  0
  9 27  1  0  0  0  0
  9 28  1  0  0  0  0
 10 11  1  0  0  0  0
 10 29  1  0  0  0  0
 10 30  1  0  0  0  0
 11 12  1  0  0  0  0
 12 13  2  0  0  0  0
 12 14  1  0  0  0  0
 13 15  1  0  0  0  0
 14 16  2  0  0  0  0
 14 31  1  0  0  0  0
 15 17  2  0  0  0  0
 15 18  1  0  0  0  0
 16 17  1  0  0  0  0
 16 32  1  0  0  0  0
 18 33  1  0  0  0  0
 18 34  1  0  0  0  0
 18 35  1  0  0  0  0
M  END
>  <Column 1>
CNS(=O)(=O)N1CCN(c2ccnc(C)n2)CC1 ZINC000000006024

>  <Total Molweight>
271.344

>  <cLogP>
-0.1573

>  <cLogS>
-0.519

>  <H-Acceptors>
7

>  <H-Donors>
1

>  <Total Surface Area>
197.48

>  <MMFF94 Energy>
-166.87

> <Gold.Version>
5.8.1

> <Gold.Id.Protein>
ID|2FQT|mol2

> <Gold.PLP.Fitness>
58.4564

> <Gold.PLP.PLP>
-40.4874

> <Gold.PLP.part.hbond>
-1.7168

> <Gold.PLP.part.metal>
-2.0000

> <Gold.PLP.part.buried>
-1.5627

> <Gold.PLP.part.nonpolar>
-34.6504

> <Gold.PLP.part.repulsive>
0.2016

> <Gold.PLP.ligand.clash>
0.0000

> <Gold.PLP.ligand.torsion>
1.3286

> <Gold.PLP.Chemscore.Hbond>
1.9258

> <Gold.PLP.Chemscore.CHOScore>
0.0000

> <Gold.PLP.Chemscore.Metal>
2.2892

> <Gold.Chemscore.Hbonds>
donor molecule, donor type, donor heavy atom, donor atom, acceptor molecule, acceptor atom, score
      L1  H     5    19       P1   403  0.98
      P1  H   966  2177       L1     2  0.94
      P1  M  1222  1222       L1     2  0.99
      P1  M  1222  1222       L1     4  0.30
      P1  M  1222  1222       L1     5  1.00

> <Gold.PLP.Chemscore.Internal.Correction>
1.1133

> <Gold.Protein.RotatedTorsions>
[ 1849  621  620  617 ] final   97.68 input   60.00 | X-H torsion

> <Gold.Protein.ActiveResidues>
 HIS54   GLU57   HIS58   ALA61   PHE62   ILE76   ILE77   ASP78   ILE79   SER80  
 PRO81   GLN125  CYS126  GLY127  GLN128  HIS132  CO701  

> <Gold.Protein.RotatedAtoms>
  -18.0684   28.3013  -13.0292 H   0  0  0  0  0  0  0  0  0  0  0  0  # atno 1849 bound_to 621 
  -19.6332   28.5994  -13.3621 LP  0  0  0  0  0  0  0  0  0  0  0  0  # atno 2431 bound_to 621 
  -18.8859   27.3081  -14.0259 LP  0  0  0  0  0  0  0  0  0  0  0  0  # atno 2432 bound_to 621 

$$$$
Compound 56|DecoysActives|sdf|63|dock5
  -GOLD-   6112412133D 1   1.00000     0.00000

 29 30  0  0  0  0  0  0  0  0  1 V2000
  -26.8380   29.9561  -19.8873 N   0  0  0  0  0  0  0  0  0  0  0  0
  -26.8126   30.5994  -18.7286 N   0  0  0  0  0  0  0  0  0  0  0  0
  -25.8977   30.5601  -20.6275 N   0  0  0  0  0  0  0  0  0  0  0  0
  -25.8417   31.5707  -18.8304 C   0  0  0  0  0  0  0  0  0  0  0  0
  -25.2463   31.5772  -20.0353 N   0  0  0  0  0  0  0  0  0  0  0  0
  -25.5981   30.1344  -21.9746 C   0  0  0  0  0  0  0  0  0  0  0  0
  -25.5803   32.4465  -17.7278 C   0  0  0  0  0  0  0  0  0  0  0  0
  -25.8997   31.2159  -22.9955 C   0  0  0  0  0  0  0  0  0  0  0  0
  -24.8599   32.1100  -16.6390 C   0  0  0  0  0  0  0  0  0  0  0  0
  -26.1907   33.8276  -17.8717 C   0  0  0  0  0  0  0  0  0  0  0  0
  -24.6606   33.0659  -15.4985 C   0  0  0  0  0  0  0  0  0  0  0  0
  -25.6501   34.8293  -16.9213 N   0  0  0  0  0  0  0  0  0  0  0  0
  -25.6049   34.2777  -15.5615 C   0  0  0  0  0  0  0  0  0  0  0  0
  -26.4428   36.0555  -16.9668 C   0  0  0  0  0  0  0  0  0  0  0  0
  -24.5394   29.8551  -22.0091 H   0  0  0  0  0  0  0  0  0  0  0  0
  -26.1894   29.2352  -22.1786 H   0  0  0  0  0  0  0  0  0  0  0  0
  -25.3100   32.1180  -22.8005 H   0  0  0  0  0  0  0  0  0  0  0  0
  -25.6631   30.8638  -24.0041 H   0  0  0  0  0  0  0  0  0  0  0  0
  -26.9579   31.4978  -22.9708 H   0  0  0  0  0  0  0  0  0  0  0  0
  -24.4033   31.1277  -16.5511 H   0  0  0  0  0  0  0  0  0  0  0  0
  -27.2791   33.7374  -17.7474 H   0  0  0  0  0  0  0  0  0  0  0  0
  -25.9984   34.2120  -18.8818 H   0  0  0  0  0  0  0  0  0  0  0  0
  -23.6173   33.4038  -15.5085 H   0  0  0  0  0  0  0  0  0  0  0  0
  -24.8233   32.5384  -14.5516 H   0  0  0  0  0  0  0  0  0  0  0  0
  -26.6096   33.9845  -15.2276 H   0  0  0  0  0  0  0  0  0  0  0  0
  -25.2379   35.0327  -14.8551 H   0  0  0  0  0  0  0  0  0  0  0  0
  -26.4457   36.4748  -17.9790 H   0  0  0  0  0  0  0  0  0  0  0  0
  -27.4815   35.8906  -16.6582 H   0  0  0  0  0  0  0  0  0  0  0  0
  -26.0070   36.8183  -16.3121 H   0  0  0  0  0  0  0  0  0  0  0  0
  1  2  2  0  0  0  0
  1  3  1  0  0  0  0
  2  4  1  0  0  0  0
  3  5  1  0  0  0  0
  3  6  1  0  0  0  0
  4  7  1  0  0  0  0
  4  5  2  0  0  0  0
  6  8  1  0  0  0  0
  6 15  1  0  0  0  0
  6 16  1  0  0  0  0
  7  9  2  0  0  0  0
  7 10  1  0  0  0  0
  8 17  1  0  0  0  0
  8 18  1  0  0  0  0
  8 19  1  0  0  0  0
  9 11  1  0  0  0  0
  9 20  1  0  0  0  0
 10 12  1  0  0  0  0
 10 21  1  0  0  0  0
 10 22  1  0  0  0  0
 11 13  1  0  0  0  0
 11 23  1  0  0  0  0
 11 24  1  0  0  0  0
 12 14  1  0  0  0  0
 12 13  1  0  0  0  0
 13 25  1  0  0  0  0
 13 26  1  0  0  0  0
 14 27  1  0  0  0  0
 14 28  1  0  0  0  0
 14 29  1  0  0  0  0
M  END
>  <Column 1>
CCn1nnc(C2=CCCN(C)C2)n1 ZINC000000006302

>  <Total Molweight>
193.253

>  <cLogP>
0.2964

>  <cLogS>
0.763

>  <H-Acceptors>
5

>  <H-Donors>
0

>  <Total Surface Area>
159.81

>  <MMFF94 Energy>
30.402

> <Gold.Version>
5.8.1

> <Gold.Id.Protein>
ID|2FQT|mol2

> <Gold.PLP.Fitness>
47.3810

> <Gold.PLP.PLP>
-35.3528

> <Gold.PLP.part.hbond>
-1.0000

> <Gold.PLP.part.metal>
-1.8440

> <Gold.PLP.part.buried>
-5.6018

> <Gold.PLP.part.nonpolar>
-27.1605

> <Gold.PLP.part.repulsive>
0.1888

> <Gold.PLP.ligand.clash>
0.0000

> <Gold.PLP.ligand.torsion>
1.4458

> <Gold.PLP.Chemscore.Hbond>
1.0000

> <Gold.PLP.Chemscore.CHOScore>
0.0000

> <Gold.PLP.Chemscore.Metal>
1.9865

> <Gold.Chemscore.Hbonds>
donor molecule, donor type, donor heavy atom, donor atom, acceptor molecule, acceptor atom, score
      P1  H   966  2177       L1     1  1.00
      P1  M  1222  1222       L1     1  0.99
      P1  M  1222  1222       L1     2  1.00

> <Gold.PLP.Chemscore.Internal.Correction>
0.0007

> <Gold.Protein.RotatedTorsions>
[ 1849  621  620  617 ] final   -3.07 input   60.00 | X-H torsion

> <Gold.Protein.ActiveResidues>
 HIS54   GLU57   HIS58   ALA61   PHE62   ILE76   ILE77   ASP78   ILE79   SER80  
 PRO81   GLN125  CYS126  GLY127  GLN128  HIS132  CO701  

> <Gold.Protein.RotatedAtoms>
  -19.4298   28.7534  -13.1785 H   0  0  0  0  0  0  0  0  0  0  0  0  # atno 1849 bound_to 621 
  -19.1835   27.4069  -14.0586 LP  0  0  0  0  0  0  0  0  0  0  0  0  # atno 2431 bound_to 621 
  -17.9646   28.0453  -13.1791 LP  0  0  0  0  0  0  0  0  0  0  0  0  # atno 2432 bound_to 621 

$$$$
Compound 57|DecoysActives|sdf|64|dock4
  -GOLD-   6112412133D 1   1.00000     0.00000

 26 27  0  0  0  0  0  0  0  0  3 V2000
  -24.6266   32.6985  -14.5359 O   0  0  0  0  0  0  0  0  0  0  0  0
  -24.3013   32.4842  -15.7117 N   0  3  0  0  0  0  0  0  0  0  0  0
  -23.3349   31.8018  -16.0753 O   0  5  0  0  0  0  0  0  0  0  0  0
  -25.1520   33.0486  -16.7489 C   0  0  0  0  0  0  0  0  0  0  0  0
  -25.4636   32.2477  -17.8629 C   0  0  0  0  0  0  0  0  0  0  0  0
  -25.6074   34.3866  -16.6291 C   0  0  0  0  0  0  0  0  0  0  0  0
  -25.0647   30.9018  -17.9796 N   0  0  0  0  0  0  0  0  0  0  0  0
  -26.2048   32.8169  -18.9005 C   0  0  0  0  0  0  0  0  0  0  0  0
  -26.3347   34.9402  -17.7072 C   0  0  0  0  0  0  0  0  0  0  0  0
  -25.2944   35.2216  -15.4100 C   0  0  0  0  0  0  0  0  0  0  0  0
  -25.3470   30.1061  -19.0687 C   0  0  0  0  0  0  0  0  0  0  0  0
  -26.5194   32.0707  -20.0397 N   0  0  0  0  0  0  0  0  0  0  0  0
  -26.6321   34.1438  -18.8273 C   0  0  0  0  0  0  0  0  0  0  0  0
  -26.8262   36.3652  -17.6908 C   0  0  0  0  0  0  0  0  0  0  0  0
  -24.9944   28.9363  -19.1207 O   0  0  0  0  0  0  0  0  0  0  0  0
  -26.1400   30.7604  -20.2214 C   0  0  0  0  0  0  0  0  0  0  0  0
  -26.4198   30.1457  -21.2408 O   0  0  0  0  0  0  0  0  0  0  0  0
  -24.5918   30.4258  -17.2158 H   0  0  0  0  0  0  0  0  0  0  0  0
  -25.2817   34.6132  -14.5000 H   0  0  0  0  0  0  0  0  0  0  0  0
  -26.0565   35.9866  -15.2348 H   0  0  0  0  0  0  0  0  0  0  0  0
  -24.3252   35.7149  -15.5320 H   0  0  0  0  0  0  0  0  0  0  0  0
  -27.0443   32.4789  -20.8022 H   0  0  0  0  0  0  0  0  0  0  0  0
  -27.2035   34.5713  -19.6502 H   0  0  0  0  0  0  0  0  0  0  0  0
  -27.6378   36.4756  -16.9649 H   0  0  0  0  0  0  0  0  0  0  0  0
  -27.2088   36.6694  -18.6710 H   0  0  0  0  0  0  0  0  0  0  0  0
  -26.0102   37.0504  -17.4401 H   0  0  0  0  0  0  0  0  0  0  0  0
  1  2  2  0  0  0  0
  2  3  1  0  0  0  0
  2  4  1  0  0  0  0
  4  5  2  0  0  0  0
  4  6  1  0  0  0  0
  5  7  1  0  0  0  0
  5  8  1  0  0  0  0
  6  9  2  0  0  0  0
  6 10  1  0  0  0  0
  7 11  1  0  0  0  0
  7 18  1  0  0  0  0
  8 12  1  0  0  0  0
  8 13  2  0  0  0  0
  9 14  1  0  0  0  0
  9 13  1  0  0  0  0
 10 19  1  0  0  0  0
 10 20  1  0  0  0  0
 10 21  1  0  0  0  0
 11 15  2  0  0  0  0
 11 16  1  0  0  0  0
 12 16  1  0  0  0  0
 12 22  1  0  0  0  0
 13 23  1  0  0  0  0
 14 24  1  0  0  0  0
 14 25  1  0  0  0  0
 14 26  1  0  0  0  0
 16 17  2  0  0  0  0
M  CHG  1   2   1
M  CHG  1   3  -1
M  END
>  <Column 1>
Cc1cc2[nH]c(=O)c(=O)[nH]c2c([N+](=O)[O-])c1C ZINC000000006308

>  <Total Molweight>
235.198

>  <cLogP>
-0.8284

>  <cLogS>
-2.994

>  <H-Acceptors>
6

>  <H-Donors>
2

>  <Total Surface Area>
166.37

>  <MMFF94 Energy>
98.936

> <Gold.Version>
5.8.1

> <Gold.Id.Protein>
ID|2FQT|mol2

> <Gold.PLP.Fitness>
36.4233

> <Gold.PLP.PLP>
-32.5171

> <Gold.PLP.part.hbond>
-2.0000

> <Gold.PLP.part.metal>
0.0000

> <Gold.PLP.part.buried>
-3.2330

> <Gold.PLP.part.nonpolar>
-29.8780

> <Gold.PLP.part.repulsive>
0.9298

> <Gold.PLP.ligand.clash>
0.0000

> <Gold.PLP.ligand.torsion>
0.6907

> <Gold.PLP.Chemscore.Hbond>
1.3360

> <Gold.PLP.Chemscore.CHOScore>
0.0000

> <Gold.PLP.Chemscore.Metal>
0.0000

> <Gold.Chemscore.Hbonds>
donor molecule, donor type, donor heavy atom, donor atom, acceptor molecule, acceptor atom, score
      L1  H    12    22       P1   954  1.00
      P1  H   966  2177       L1    17  0.34

> <Gold.PLP.Chemscore.Internal.Correction>
1.2796

> <Gold.Protein.RotatedTorsions>
[ 1849  621  620  617 ] final  143.86 input   60.00 | X-H torsion

> <Gold.Protein.ActiveResidues>
 HIS54   GLU57   HIS58   ALA61   PHE62   ILE76   ILE77   ASP78   ILE79   SER80  
 PRO81   GLN125  CYS126  GLY127  GLN128  HIS132  CO701  

> <Gold.Protein.RotatedAtoms>
  -18.0031   27.6957  -13.4394 H   0  0  0  0  0  0  0  0  0  0  0  0  # atno 1849 bound_to 621 
  -19.0523   28.8517  -12.9801 LP  0  0  0  0  0  0  0  0  0  0  0  0  # atno 2431 bound_to 621 
  -19.5325   27.6657  -13.9947 LP  0  0  0  0  0  0  0  0  0  0  0  0  # atno 2432 bound_to 621 

$$$$
Compound 58|DecoysActives|sdf|65|dock2
  -GOLD-   6112412133D 1   1.00000     0.00000

 16 16  0  0  0  0  0  0  0  0  1 V2000
  -26.6140   35.3908  -20.1486 O   0  0  0  0  0  0  0  0  0  0  0  0
  -26.3636   34.9415  -18.8811 C   0  0  0  0  0  0  0  0  0  0  0  0
  -25.9754   33.6167  -18.6909 C   0  0  0  0  0  0  0  0  0  0  0  0
  -26.4976   35.7998  -17.7881 C   0  0  0  0  0  0  0  0  0  0  0  0
  -25.8490   32.7903  -19.7716 O   0  0  0  0  0  0  0  0  0  0  0  0
  -25.7234   33.1427  -17.4072 C   0  0  0  0  0  0  0  0  0  0  0  0
  -26.2349   35.3399  -16.4942 C   0  0  0  0  0  0  0  0  0  0  0  0
  -25.8588   34.0051  -16.3143 C   0  0  0  0  0  0  0  0  0  0  0  0
  -26.3900   36.1768  -15.4036 N   0  0  0  0  0  0  0  0  0  0  0  0
  -27.1163   34.7150  -20.6284 H   0  0  0  0  0  0  0  0  0  0  0  0
  -26.8059   36.8294  -17.9362 H   0  0  0  0  0  0  0  0  0  0  0  0
  -26.4496   33.0905  -20.4700 H   0  0  0  0  0  0  0  0  0  0  0  0
  -25.4256   32.1136  -17.2354 H   0  0  0  0  0  0  0  0  0  0  0  0
  -25.6660   33.6232  -15.3151 H   0  0  0  0  0  0  0  0  0  0  0  0
  -26.6957   37.1319  -15.5301 H   0  0  0  0  0  0  0  0  0  0  0  0
  -26.3334   35.8136  -14.4623 H   0  0  0  0  0  0  0  0  0  0  0  0
  1  2  1  0  0  0  0
  1 10  1  0  0  0  0
  2  3  2  0  0  0  0
  2  4  1  0  0  0  0
  3  5  1  0  0  0  0
  3  6  1  0  0  0  0
  4  7  2  0  0  0  0
  4 11  1  0  0  0  0
  5 12  1  0  0  0  0
  6  8  2  0  0  0  0
  6 13  1  0  0  0  0
  7  9  1  0  0  0  0
  7  8  1  0  0  0  0
  8 14  1  0  0  0  0
  9 15  1  0  0  0  0
  9 16  1  0  0  0  0
M  END
>  <Column 1>
Nc1ccc(O)c(O)c1 ZINC000000006364

>  <Total Molweight>
125.127

>  <cLogP>
0.2909

>  <cLogS>
-1.1

>  <H-Acceptors>
3

>  <H-Donors>
3

>  <Total Surface Area>
94.48

>  <MMFF94 Energy>
5.9598

> <Gold.Version>
5.8.1

> <Gold.Id.Protein>
ID|2FQT|mol2

> <Gold.PLP.Fitness>
30.5158

> <Gold.PLP.PLP>
-21.5158

> <Gold.PLP.part.hbond>
-3.0000

> <Gold.PLP.part.metal>
0.0000

> <Gold.PLP.part.buried>
-3.3887

> <Gold.PLP.part.nonpolar>
-15.4453

> <Gold.PLP.part.repulsive>
0.0978

> <Gold.PLP.ligand.clash>
0.0000

> <Gold.PLP.ligand.torsion>
0.0000

> <Gold.PLP.Chemscore.Hbond>
3.0000

> <Gold.PLP.Chemscore.CHOScore>
0.0000

> <Gold.PLP.Chemscore.Metal>
0.0000

> <Gold.Chemscore.Hbonds>
donor molecule, donor type, donor heavy atom, donor atom, acceptor molecule, acceptor atom, score
      L1  H     1    10       P1   954  1.00
      L1  H     5    12       P1   954  1.00
      L1  H     9    16       P1   431  1.00

> <Gold.PLP.Chemscore.Internal.Correction>
0.0000

> <Gold.Protein.RotatedTorsions>
[ 1849  621  620  617 ] final  133.25 input   60.00 | X-H torsion

> <Gold.Protein.ActiveResidues>
 HIS54   GLU57   HIS58   ALA61   PHE62   ILE76   ILE77   ASP78   ILE79   SER80  
 PRO81   GLN125  CYS126  GLY127  GLN128  HIS132  CO701  

> <Gold.Protein.RotatedAtoms>
  -17.9671   27.8273  -13.3328 H   0  0  0  0  0  0  0  0  0  0  0  0  # atno 1849 bound_to 621 
  -19.2124   28.8353  -13.0474 LP  0  0  0  0  0  0  0  0  0  0  0  0  # atno 2431 bound_to 621 
  -19.4087   27.5495  -14.0348 LP  0  0  0  0  0  0  0  0  0  0  0  0  # atno 2432 bound_to 621 

$$$$
Compound 59|DecoysActives|sdf|66|dock1
  -GOLD-   6112412133D 1   1.00000     0.00000

 21 22  0  0  0  0  0  0  0  0  1 V2000
  -26.2342   36.1134  -16.6747 F   0  0  0  0  0  0  0  0  0  0  0  0
  -25.8531   34.8298  -16.6319 C   0  0  0  0  0  0  0  0  0  0  0  0
  -26.2002   33.9827  -17.6826 C   0  0  0  0  0  0  0  0  0  0  0  0
  -25.1097   34.3743  -15.5512 C   0  0  0  0  0  0  0  0  0  0  0  0
  -25.8322   32.6327  -17.6497 C   0  0  0  0  0  0  0  0  0  0  0  0
  -24.6865   33.0497  -15.5289 C   0  0  0  0  0  0  0  0  0  0  0  0
  -26.0872   31.7146  -18.7645 C   0  0  0  0  0  0  0  0  0  0  0  0
  -25.0314   32.1936  -16.5800 C   0  0  0  0  0  0  0  0  0  0  0  0
  -26.7929   30.5978  -18.6757 N   0  0  0  0  0  0  0  0  0  0  0  0
  -25.6665   31.8331  -20.0702 N   0  0  0  0  0  0  0  0  0  0  0  0
  -26.8017   29.9747  -19.8987 N   0  0  0  0  0  0  0  0  0  0  0  0
  -26.1219   30.7283  -20.7258 C   0  0  0  0  0  0  0  0  0  0  0  0
  -24.9883   32.9330  -20.7024 C   0  0  0  0  0  0  0  0  0  0  0  0
  -26.7331   34.4141  -18.5216 H   0  0  0  0  0  0  0  0  0  0  0  0
  -24.8481   35.0565  -14.7488 H   0  0  0  0  0  0  0  0  0  0  0  0
  -24.0801   32.6810  -14.7053 H   0  0  0  0  0  0  0  0  0  0  0  0
  -24.6736   31.1637  -16.5601 H   0  0  0  0  0  0  0  0  0  0  0  0
  -25.9505   30.5290  -21.7742 H   0  0  0  0  0  0  0  0  0  0  0  0
  -23.9149   32.8207  -20.5347 H   0  0  0  0  0  0  0  0  0  0  0  0
  -25.1949   32.9162  -21.7764 H   0  0  0  0  0  0  0  0  0  0  0  0
  -25.3547   33.8752  -20.2880 H   0  0  0  0  0  0  0  0  0  0  0  0
  1  2  1  0  0  0  0
  2  3  2  0  0  0  0
  2  4  1  0  0  0  0
  3  5  1  0  0  0  0
  3 14  1  0  0  0  0
  4  6  2  0  0  0  0
  4 15  1  0  0  0  0
  5  7  1  0  0  0  0
  5  8  2  0  0  0  0
  6  8  1  0  0  0  0
  6 16  1  0  0  0  0
  7  9  2  0  0  0  0
  7 10  1  0  0  0  0
  8 17  1  0  0  0  0
  9 11  1  0  0  0  0
 10 12  1  0  0  0  0
 10 13  1  0  0  0  0
 11 12  2  0  0  0  0
 12 18  1  0  0  0  0
 13 19  1  0  0  0  0
 13 20  1  0  0  0  0
 13 21  1  0  0  0  0
M  END
>  <Column 1>
Cn1cnnc1-c1cccc(F)c1 ZINC000000006371

>  <Total Molweight>
177.182

>  <cLogP>
1.3061

>  <cLogS>
-2.688

>  <H-Acceptors>
3

>  <H-Donors>
0

>  <Total Surface Area>
138.35

>  <MMFF94 Energy>
16.36

> <Gold.Version>
5.8.1

> <Gold.Id.Protein>
ID|2FQT|mol2

> <Gold.PLP.Fitness>
47.3876

> <Gold.PLP.PLP>
-34.8905

> <Gold.PLP.part.hbond>
-1.0000

> <Gold.PLP.part.metal>
-1.8479

> <Gold.PLP.part.buried>
-3.2207

> <Gold.PLP.part.nonpolar>
-28.7261

> <Gold.PLP.part.repulsive>
0.1092

> <Gold.PLP.ligand.clash>
0.0000

> <Gold.PLP.ligand.torsion>
1.1683

> <Gold.PLP.Chemscore.Hbond>
1.0000

> <Gold.PLP.Chemscore.CHOScore>
0.0000

> <Gold.PLP.Chemscore.Metal>
1.9693

> <Gold.Chemscore.Hbonds>
donor molecule, donor type, donor heavy atom, donor atom, acceptor molecule, acceptor atom, score
      P1  H   966  2177       L1    11  1.00
      P1  M  1222  1222       L1     9  1.00
      P1  M  1222  1222       L1    11  0.97

> <Gold.PLP.Chemscore.Internal.Correction>
0.0177

> <Gold.Protein.RotatedTorsions>
[ 1849  621  620  617 ] final -102.11 input   60.00 | X-H torsion

> <Gold.Protein.ActiveResidues>
 HIS54   GLU57   HIS58   ALA61   PHE62   ILE76   ILE77   ASP78   ILE79   SER80  
 PRO81   GLN125  CYS126  GLY127  GLN128  HIS132  CO701  

> <Gold.Protein.RotatedAtoms>
  -19.4618   27.6004  -14.0139 H   0  0  0  0  0  0  0  0  0  0  0  0  # atno 1849 bound_to 621 
  -17.9723   27.7676  -13.3803 LP  0  0  0  0  0  0  0  0  0  0  0  0  # atno 2431 bound_to 621 
  -19.1435   28.8457  -13.0160 LP  0  0  0  0  0  0  0  0  0  0  0  0  # atno 2432 bound_to 621 

$$$$
Compound 60|DecoysActives|sdf|67|dock3
  -GOLD-   6112412133D 1   1.00000     0.00000

 18 19  0  0  0  0  0  0  0  0  3 V2000
  -27.0086   37.0318  -16.3753 Cl  0  0  0  0  0  0  0  0  0  0  0  0
  -26.4402   35.4411  -16.6892 C   0  0  0  0  0  0  0  0  0  0  0  0
  -25.7571   34.7480  -15.6979 C   0  0  0  0  0  0  0  0  0  0  0  0
  -26.6672   34.8578  -17.9324 C   0  0  0  0  0  0  0  0  0  0  0  0
  -25.2910   33.4694  -15.9258 N   0  3  0  0  0  0  0  0  0  0  0  0
  -26.2014   33.5703  -18.1714 C   0  0  0  0  0  0  0  0  0  0  0  0
  -24.6647   32.8360  -15.0148 O   0  5  0  0  0  0  0  0  0  0  0  0
  -25.5139   32.8746  -17.1717 C   0  0  0  0  0  0  0  0  0  0  0  0
  -26.4190   32.9659  -19.4140 N   0  0  0  0  0  0  0  0  0  0  0  0
  -25.0484   31.5761  -17.4239 N   0  0  0  0  0  0  0  0  0  0  0  0
  -25.9866   31.6911  -19.7252 C   0  0  0  0  0  0  0  0  0  0  0  0
  -25.2235   30.9181  -18.6163 C   0  0  0  0  0  0  0  0  0  0  0  0
  -26.1977   31.1994  -20.8245 O   0  0  0  0  0  0  0  0  0  0  0  0
  -24.8055   29.7853  -18.8057 O   0  0  0  0  0  0  0  0  0  0  0  0
  -25.5364   35.1191  -14.7090 H   0  0  0  0  0  0  0  0  0  0  0  0
  -27.2032   35.4094  -18.7012 H   0  0  0  0  0  0  0  0  0  0  0  0
  -26.9137   33.4459  -20.1562 H   0  0  0  0  0  0  0  0  0  0  0  0
  -24.5541   31.1084  -16.6680 H   0  0  0  0  0  0  0  0  0  0  0  0
  1  2  1  0  0  0  0
  2  3  2  0  0  0  0
  2  4  1  0  0  0  0
  3  5  1  0  0  0  0
  3 15  1  0  0  0  0
  4  6  2  0  0  0  0
  4 16  1  0  0  0  0
  5  7  1  0  0  0  0
  5  8  2  0  0  0  0
  6  9  1  0  0  0  0
  6  8  1  0  0  0  0
  8 10  1  0  0  0  0
  9 11  1  0  0  0  0
  9 17  1  0  0  0  0
 10 12  1  0  0  0  0
 10 18  1  0  0  0  0
 11 13  2  0  0  0  0
 11 12  1  0  0  0  0
 12 14  2  0  0  0  0
M  CHG  1   5   1
M  CHG  1   7  -1
M  END
>  <Column 1>
O=c1[nH]c2cc(Cl)c[n+]([O-])c2[nH]c1=O ZINC000000006450

>  <Total Molweight>
213.58

>  <cLogP>
-1.1136

>  <cLogS>
-4.696

>  <H-Acceptors>
5

>  <H-Donors>
2

>  <Total Surface Area>
135.65

>  <MMFF94 Energy>
52.58

> <Gold.Version>
5.8.1

> <Gold.Id.Protein>
ID|2FQT|mol2

> <Gold.PLP.Fitness>
37.7887

> <Gold.PLP.PLP>
-34.7887

> <Gold.PLP.part.hbond>
-1.0000

> <Gold.PLP.part.metal>
0.0000

> <Gold.PLP.part.buried>
-6.1704

> <Gold.PLP.part.nonpolar>
-28.9726

> <Gold.PLP.part.repulsive>
0.9496

> <Gold.PLP.ligand.clash>
0.0000

> <Gold.PLP.ligand.torsion>
0.0000

> <Gold.PLP.Chemscore.Hbond>
1.0000

> <Gold.PLP.Chemscore.CHOScore>
0.0000

> <Gold.PLP.Chemscore.Metal>
0.0000

> <Gold.Chemscore.Hbonds>
donor molecule, donor type, donor heavy atom, donor atom, acceptor molecule, acceptor atom, score
      L1  H     9    17       P1   954  1.00

> <Gold.PLP.Chemscore.Internal.Correction>
0.0000

> <Gold.Protein.RotatedTorsions>
[ 1849  621  620  617 ] final  176.29 input   60.00 | X-H torsion

> <Gold.Protein.ActiveResidues>
 HIS54   GLU57   HIS58   ALA61   PHE62   ILE76   ILE77   ASP78   ILE79   SER80  
 PRO81   GLN125  CYS126  GLY127  GLN128  HIS132  CO701  

> <Gold.Protein.RotatedAtoms>
  -18.2846   27.3893  -13.7562 H   0  0  0  0  0  0  0  0  0  0  0  0  # atno 1849 bound_to 621 
  -18.5468   28.7388  -12.8854 LP  0  0  0  0  0  0  0  0  0  0  0  0  # atno 2431 bound_to 621 
  -19.7546   28.0872  -13.7705 LP  0  0  0  0  0  0  0  0  0  0  0  0  # atno 2432 bound_to 621 

$$$$
Compound 61|DecoysActives|sdf|68|dock3
  -GOLD-   6112412133D 1   1.00000     0.00000

 22 24  0  0  0  0  0  0  0  0  3 V2000
  -24.8371   28.8360  -18.5832 O   0  0  0  0  0  0  0  0  0  0  0  0
  -25.7466   29.6141  -18.9013 N   0  3  0  0  0  0  0  0  0  0  0  0
  -26.7058   29.3207  -19.6276 O   0  5  0  0  0  0  0  0  0  0  0  0
  -25.6819   30.9857  -18.3781 C   0  0  0  0  0  0  0  0  0  0  0  0
  -25.9918   32.0625  -19.2232 C   0  0  0  0  0  0  0  0  0  0  0  0
  -25.3108   31.2002  -17.0391 C   0  0  0  0  0  0  0  0  0  0  0  0
  -25.9269   33.3582  -18.7158 C   0  0  0  0  0  0  0  0  0  0  0  0
  -25.2463   32.5011  -16.5317 C   0  0  0  0  0  0  0  0  0  0  0  0
  -26.2350   34.4472  -19.5518 N   0  0  0  0  0  0  0  0  0  0  0  0
  -25.5551   33.5703  -17.3749 C   0  0  0  0  0  0  0  0  0  0  0  0
  -26.2001   35.7721  -19.1423 C   0  0  0  0  0  0  0  0  0  0  0  0
  -25.5149   34.9058  -16.9446 N   0  0  0  0  0  0  0  0  0  0  0  0
  -26.4849   36.6606  -19.9411 O   0  0  0  0  0  0  0  0  0  0  0  0
  -25.8171   35.9561  -17.7687 C   0  0  0  0  0  0  0  0  0  0  0  0
  -25.2036   35.4614  -15.7399 C   0  0  0  0  0  0  0  0  0  0  0  0
  -25.6970   37.0862  -17.1047 N   0  0  0  0  0  0  0  0  0  0  0  0
  -25.3079   36.7705  -15.8186 N   0  0  0  0  0  0  0  0  0  0  0  0
  -26.2787   31.8927  -20.2589 H   0  0  0  0  0  0  0  0  0  0  0  0
  -25.0701   30.3642  -16.3827 H   0  0  0  0  0  0  0  0  0  0  0  0
  -24.9570   32.6434  -15.4935 H   0  0  0  0  0  0  0  0  0  0  0  0
  -26.5039   34.3059  -20.5187 H   0  0  0  0  0  0  0  0  0  0  0  0
  -24.9161   34.9066  -14.8594 H   0  0  0  0  0  0  0  0  0  0  0  0
  1  2  2  0  0  0  0
  2  3  1  0  0  0  0
  2  4  1  0  0  0  0
  4  5  2  0  0  0  0
  4  6  1  0  0  0  0
  5  7  1  0  0  0  0
  5 18  1  0  0  0  0
  6  8  2  0  0  0  0
  6 19  1  0  0  0  0
  7  9  1  0  0  0  0
  7 10  2  0  0  0  0
  8 10  1  0  0  0  0
  8 20  1  0  0  0  0
  9 11  1  0  0  0  0
  9 21  1  0  0  0  0
 10 12  1  0  0  0  0
 11 13  2  0  0  0  0
 11 14  1  0  0  0  0
 12 15  1  0  0  0  0
 12 14  1  0  0  0  0
 14 16  2  0  0  0  0
 15 17  2  0  0  0  0
 15 22  1  0  0  0  0
 16 17  1  0  0  0  0
M  CHG  1   2   1
M  CHG  1   3  -1
M  END
>  <Column 1>
O=c1[nH]c2cc([N+](=O)[O-])ccc2n2cnnc12 ZINC000000007118

>  <Total Molweight>
231.171

>  <cLogP>
-1.0198

>  <cLogS>
-4.025

>  <H-Acceptors>
7

>  <H-Donors>
1

>  <Total Surface Area>
159.12

>  <MMFF94 Energy>
41.711

> <Gold.Version>
5.8.1

> <Gold.Id.Protein>
ID|2FQT|mol2

> <Gold.PLP.Fitness>
41.3107

> <Gold.PLP.PLP>
-31.1757

> <Gold.PLP.part.hbond>
-2.0000

> <Gold.PLP.part.metal>
-1.0000

> <Gold.PLP.part.buried>
-1.7717

> <Gold.PLP.part.nonpolar>
-26.9676

> <Gold.PLP.part.repulsive>
0.2749

> <Gold.PLP.ligand.clash>
0.0000

> <Gold.PLP.ligand.torsion>
0.6768

> <Gold.PLP.Chemscore.Hbond>
1.8564

> <Gold.PLP.Chemscore.CHOScore>
0.0000

> <Gold.PLP.Chemscore.Metal>
0.9865

> <Gold.Chemscore.Hbonds>
donor molecule, donor type, donor heavy atom, donor atom, acceptor molecule, acceptor atom, score
      L1  H     9    21       P1   954  0.86
      P1  H   966  2177       L1     3  1.00
      P1  M  1222  1222       L1     3  0.99

> <Gold.PLP.Chemscore.Internal.Correction>
0.0000

> <Gold.Protein.RotatedTorsions>
[ 1849  621  620  617 ] final   44.67 input   60.00 | X-H torsion

> <Gold.Protein.ActiveResidues>
 HIS54   GLU57   HIS58   ALA61   PHE62   ILE76   ILE77   ASP78   ILE79   SER80  
 PRO81   GLN125  CYS126  GLY127  GLN128  HIS132  CO701  

> <Gold.Protein.RotatedAtoms>
  -18.7264   28.8002  -12.9008 H   0  0  0  0  0  0  0  0  0  0  0  0  # atno 1849 bound_to 621 
  -19.7052   27.9294  -13.8661 LP  0  0  0  0  0  0  0  0  0  0  0  0  # atno 2431 bound_to 621 
  -18.1513   27.4756  -13.6511 LP  0  0  0  0  0  0  0  0  0  0  0  0  # atno 2432 bound_to 621 

$$$$
Compound 62|DecoysActives|sdf|69|dock1
  -GOLD-   6112412133D 1   1.00000     0.00000

 21 22  0  0  0  0  0  0  0  0  1 V2000
  -27.3534   38.7215  -18.2860 S   0  0  0  0  0  0  0  0  0  0  0  0
  -26.8336   37.3911  -17.4207 C   0  0  0  0  0  0  0  0  0  0  0  0
  -26.5042   36.2257  -18.0644 N   0  0  0  0  0  0  0  0  0  0  0  0
  -26.7733   37.4024  -15.9006 C   0  0  0  0  0  0  0  0  0  0  0  0
  -26.0232   35.1407  -17.3657 C   0  0  0  0  0  0  0  0  0  0  0  0
  -25.6138   36.5562  -15.3918 C   0  0  0  0  0  0  0  0  0  0  0  0
  -25.5915   35.2842  -16.0770 N   0  0  0  0  0  0  0  0  0  0  0  0
  -25.8310   33.8031  -17.6715 C   0  0  0  0  0  0  0  0  0  0  0  0
  -25.1749   34.0788  -15.6180 C   0  0  0  0  0  0  0  0  0  0  0  0
  -25.3030   33.1563  -16.5463 N   0  0  0  0  0  0  0  0  0  0  0  0
  -26.0831   33.0508  -18.8928 C   0  0  0  0  0  0  0  0  0  0  0  0
  -25.8578   31.4110  -19.0018 S   0  0  0  0  0  0  0  0  0  0  0  0
  -26.5293   33.7894  -19.9512 N   0  0  0  0  0  0  0  0  0  0  0  0
  -26.5971   36.1662  -19.0773 H   0  0  0  0  0  0  0  0  0  0  0  0
  -27.7229   36.9892  -15.5352 H   0  0  0  0  0  0  0  0  0  0  0  0
  -26.6866   38.4231  -15.5125 H   0  0  0  0  0  0  0  0  0  0  0  0
  -24.6519   37.0400  -15.5948 H   0  0  0  0  0  0  0  0  0  0  0  0
  -25.7038   36.3738  -14.3165 H   0  0  0  0  0  0  0  0  0  0  0  0
  -24.7895   33.9207  -14.6190 H   0  0  0  0  0  0  0  0  0  0  0  0
  -26.7363   33.3586  -20.8406 H   0  0  0  0  0  0  0  0  0  0  0  0
  -26.6555   34.7898  -19.8287 H   0  0  0  0  0  0  0  0  0  0  0  0
  1  2  2  0  0  0  0
  2  3  1  0  0  0  0
  2  4  1  0  0  0  0
  3  5  1  0  0  0  0
  3 14  1  0  0  0  0
  4  6  1  0  0  0  0
  4 15  1  0  0  0  0
  4 16  1  0  0  0  0
  5  7  1  0  0  0  0
  5  8  2  0  0  0  0
  6  7  1  0  0  0  0
  6 17  1  0  0  0  0
  6 18  1  0  0  0  0
  7  9  1  0  0  0  0
  8 10  1  0  0  0  0
  8 11  1  0  0  0  0
  9 10  2  0  0  0  0
  9 19  1  0  0  0  0
 11 12  2  0  0  0  0
 11 13  1  0  0  0  0
 13 20  1  0  0  0  0
 13 21  1  0  0  0  0
M  END
>  <Column 1>
NC(=S)c1ncn2c1NC(=S)CC2 ZINC000000007604

>  <Total Molweight>
212.301

>  <cLogP>
0.2123

>  <cLogS>
-1.762

>  <H-Acceptors>
4

>  <H-Donors>
2

>  <Total Surface Area>
160.64

>  <MMFF94 Energy>
7.5438

> <Gold.Version>
5.8.1

> <Gold.Id.Protein>
ID|2FQT|mol2

> <Gold.PLP.Fitness>
36.6534

> <Gold.PLP.PLP>
-34.9521

> <Gold.PLP.part.hbond>
-0.1928

> <Gold.PLP.part.metal>
0.0000

> <Gold.PLP.part.buried>
-3.1258

> <Gold.PLP.part.nonpolar>
-31.8888

> <Gold.PLP.part.repulsive>
0.0940

> <Gold.PLP.ligand.clash>
0.0000

> <Gold.PLP.ligand.torsion>
0.0058

> <Gold.PLP.Chemscore.Hbond>
0.5710

> <Gold.PLP.Chemscore.CHOScore>
0.0000

> <Gold.PLP.Chemscore.Metal>
0.0000

> <Gold.Chemscore.Hbonds>
donor molecule, donor type, donor heavy atom, donor atom, acceptor molecule, acceptor atom, score
      L1  H    13    20       P1   954  0.57

> <Gold.PLP.Chemscore.Internal.Correction>
0.0000

> <Gold.Protein.RotatedTorsions>
[ 1849  621  620  617 ] final  154.62 input   60.00 | X-H torsion

> <Gold.Protein.ActiveResidues>
 HIS54   GLU57   HIS58   ALA61   PHE62   ILE76   ILE77   ASP78   ILE79   SER80  
 PRO81   GLN125  CYS126  GLY127  GLN128  HIS132  CO701  

> <Gold.Protein.RotatedAtoms>
  -18.0696   27.5753  -13.5485 H   0  0  0  0  0  0  0  0  0  0  0  0  # atno 1849 bound_to 621 
  -18.8834   28.8411  -12.9291 LP  0  0  0  0  0  0  0  0  0  0  0  0  # atno 2431 bound_to 621 
  -19.6344   27.7975  -13.9359 LP  0  0  0  0  0  0  0  0  0  0  0  0  # atno 2432 bound_to 621 

$$$$
Compound 63|DecoysActives|sdf|70|dock1
  -GOLD-   6112412133D 1   1.00000     0.00000

 20 21  0  0  0  0  0  0  0  0  1 V2000
  -26.4179   30.1940  -20.7774 O   0  0  0  0  0  0  0  0  0  0  0  0
  -26.1708   30.8697  -19.7877 C   0  0  0  0  0  0  0  0  0  0  0  0
  -26.4715   32.2059  -19.7219 N   0  0  0  0  0  0  0  0  0  0  0  0
  -25.4970   30.2470  -18.5395 C   0  0  0  0  0  0  0  0  0  0  0  0
  -26.2081   33.0067  -18.6196 C   0  0  0  0  0  0  0  0  0  0  0  0
  -25.1893   29.0639  -18.4982 O   0  0  0  0  0  0  0  0  0  0  0  0
  -25.2604   31.0909  -17.4761 N   0  0  0  0  0  0  0  0  0  0  0  0
  -26.5686   34.2988  -18.7232 N   0  0  0  0  0  0  0  0  0  0  0  0
  -25.5997   32.4508  -17.4888 C   0  0  0  0  0  0  0  0  0  0  0  0
  -26.3139   35.0804  -17.6530 C   0  0  0  0  0  0  0  0  0  0  0  0
  -25.3442   33.2783  -16.3897 C   0  0  0  0  0  0  0  0  0  0  0  0
  -25.7151   34.6252  -16.4860 C   0  0  0  0  0  0  0  0  0  0  0  0
  -24.6960   32.7730  -15.1339 C   0  0  0  0  0  0  0  0  0  0  0  0
  -26.9111   32.6419  -20.5184 H   0  0  0  0  0  0  0  0  0  0  0  0
  -24.8205   30.6659  -16.6719 H   0  0  0  0  0  0  0  0  0  0  0  0
  -26.6130   36.1205  -17.7573 H   0  0  0  0  0  0  0  0  0  0  0  0
  -25.5439   35.3185  -15.6676 H   0  0  0  0  0  0  0  0  0  0  0  0
  -25.3071   31.9852  -14.6816 H   0  0  0  0  0  0  0  0  0  0  0  0
  -24.5817   33.5698  -14.3913 H   0  0  0  0  0  0  0  0  0  0  0  0
  -23.6979   32.3803  -15.3533 H   0  0  0  0  0  0  0  0  0  0  0  0
  1  2  2  0  0  0  0
  2  3  1  0  0  0  0
  2  4  1  0  0  0  0
  3  5  1  0  0  0  0
  3 14  1  0  0  0  0
  4  6  2  0  0  0  0
  4  7  1  0  0  0  0
  5  8  2  0  0  0  0
  5  9  1  0  0  0  0
  7  9  1  0  0  0  0
  7 15  1  0  0  0  0
  8 10  1  0  0  0  0
  9 11  2  0  0  0  0
 10 12  2  0  0  0  0
 10 16  1  0  0  0  0
 11 13  1  0  0  0  0
 11 12  1  0  0  0  0
 12 17  1  0  0  0  0
 13 18  1  0  0  0  0
 13 19  1  0  0  0  0
 13 20  1  0  0  0  0
M  END
>  <Column 1>
Cc1ccnc2[nH]c(=O)c(=O)[nH]c12 ZINC000000007789

>  <Total Molweight>
177.163

>  <cLogP>
-0.9002

>  <cLogS>
-1.92

>  <H-Acceptors>
5

>  <H-Donors>
2

>  <Total Surface Area>
129.2

>  <MMFF94 Energy>
40.823

> <Gold.Version>
5.8.1

> <Gold.Id.Protein>
ID|2FQT|mol2

> <Gold.PLP.Fitness>
34.1307

> <Gold.PLP.PLP>
-29.5021

> <Gold.PLP.part.hbond>
-2.0000

> <Gold.PLP.part.metal>
0.0000

> <Gold.PLP.part.buried>
-2.4020

> <Gold.PLP.part.nonpolar>
-25.1963

> <Gold.PLP.part.repulsive>
0.4890

> <Gold.PLP.ligand.clash>
0.0000

> <Gold.PLP.ligand.torsion>
0.0000

> <Gold.PLP.Chemscore.Hbond>
1.5429

> <Gold.PLP.Chemscore.CHOScore>
0.0000

> <Gold.PLP.Chemscore.Metal>
0.0000

> <Gold.Chemscore.Hbonds>
donor molecule, donor type, donor heavy atom, donor atom, acceptor molecule, acceptor atom, score
      L1  H     3    14       P1   954  1.00
      P1  H   966  2177       L1     1  0.54

> <Gold.PLP.Chemscore.Internal.Correction>
0.0000

> <Gold.Protein.RotatedTorsions>
[ 1849  621  620  617 ] final   20.31 input   60.00 | X-H torsion

> <Gold.Protein.ActiveResidues>
 HIS54   GLU57   HIS58   ALA61   PHE62   ILE76   ILE77   ASP78   ILE79   SER80  
 PRO81   GLN125  CYS126  GLY127  GLN128  HIS132  CO701  

> <Gold.Protein.RotatedAtoms>
  -19.1058   28.8424  -13.0023 H   0  0  0  0  0  0  0  0  0  0  0  0  # atno 1849 bound_to 621 
  -19.4934   27.6250  -14.0102 LP  0  0  0  0  0  0  0  0  0  0  0  0  # atno 2431 bound_to 621 
  -17.9810   27.7375  -13.4048 LP  0  0  0  0  0  0  0  0  0  0  0  0  # atno 2432 bound_to 621 

$$$$
Compound 64|DecoysActives|sdf|71|dock1
  -GOLD-   6112412133D 1   1.00000     0.00000

 21 22  0  0  0  0  0  0  0  0  1 V2000
  -26.7693   30.0593  -19.9587 O   0  0  0  0  0  0  0  0  0  0  0  0
  -26.1808   30.5021  -18.9817 C   0  0  0  0  0  0  0  0  0  0  0  0
  -26.2690   31.8221  -18.6146 N   0  0  0  0  0  0  0  0  0  0  0  0
  -25.2942   29.5878  -18.0953 C   0  0  0  0  0  0  0  0  0  0  0  0
  -25.6184   32.3645  -17.5151 C   0  0  0  0  0  0  0  0  0  0  0  0
  -25.1519   28.3980  -18.3396 O   0  0  0  0  0  0  0  0  0  0  0  0
  -24.6738   30.1835  -17.0178 N   0  0  0  0  0  0  0  0  0  0  0  0
  -25.8046   33.6766  -17.2864 N   0  0  0  0  0  0  0  0  0  0  0  0
  -24.8211   31.5403  -16.7186 C   0  0  0  0  0  0  0  0  0  0  0  0
  -25.1663   34.1928  -16.2133 C   0  0  0  0  0  0  0  0  0  0  0  0
  -24.1762   32.0961  -15.6219 C   0  0  0  0  0  0  0  0  0  0  0  0
  -25.3023   35.5315  -15.9056 O   0  0  0  0  0  0  0  0  0  0  0  0
  -24.3532   33.4531  -15.3639 C   0  0  0  0  0  0  0  0  0  0  0  0
  -26.5553   36.0764  -16.3074 C   0  0  0  0  0  0  0  0  0  0  0  0
  -26.8389   32.4386  -19.1739 H   0  0  0  0  0  0  0  0  0  0  0  0
  -24.0982   29.5795  -16.4462 H   0  0  0  0  0  0  0  0  0  0  0  0
  -23.5449   31.5001  -14.9706 H   0  0  0  0  0  0  0  0  0  0  0  0
  -23.8686   33.9295  -14.5180 H   0  0  0  0  0  0  0  0  0  0  0  0
  -26.5661   37.1327  -16.0220 H   0  0  0  0  0  0  0  0  0  0  0  0
  -26.6804   36.0238  -17.3945 H   0  0  0  0  0  0  0  0  0  0  0  0
  -27.3861   35.5834  -15.7908 H   0  0  0  0  0  0  0  0  0  0  0  0
  1  2  2  0  0  0  0
  2  3  1  0  0  0  0
  2  4  1  0  0  0  0
  3  5  1  0  0  0  0
  3 15  1  0  0  0  0
  4  6  2  0  0  0  0
  4  7  1  0  0  0  0
  5  8  2  0  0  0  0
  5  9  1  0  0  0  0
  7  9  1  0  0  0  0
  7 16  1  0  0  0  0
  8 10  1  0  0  0  0
  9 11  2  0  0  0  0
 10 12  1  0  0  0  0
 10 13  2  0  0  0  0
 11 13  1  0  0  0  0
 11 17  1  0  0  0  0
 12 14  1  0  0  0  0
 13 18  1  0  0  0  0
 14 19  1  0  0  0  0
 14 20  1  0  0  0  0
 14 21  1  0  0  0  0
M  END
>  <Column 1>
COc1ccc2[nH]c(=O)c(=O)[nH]c2n1 ZINC000000007790

>  <Total Molweight>
193.162

>  <cLogP>
-0.9627

>  <cLogS>
-2.119

>  <H-Acceptors>
6

>  <H-Donors>
2

>  <Total Surface Area>
139.2

>  <MMFF94 Energy>
21.9

> <Gold.Version>
5.8.1

> <Gold.Id.Protein>
ID|2FQT|mol2

> <Gold.PLP.Fitness>
33.0842

> <Gold.PLP.PLP>
-25.4556

> <Gold.PLP.part.hbond>
-1.8657

> <Gold.PLP.part.metal>
-0.8003

> <Gold.PLP.part.buried>
-1.2758

> <Gold.PLP.part.nonpolar>
-22.8723

> <Gold.PLP.part.repulsive>
0.9574

> <Gold.PLP.ligand.clash>
0.0000

> <Gold.PLP.ligand.torsion>
0.3747

> <Gold.PLP.Chemscore.Hbond>
1.0000

> <Gold.PLP.Chemscore.CHOScore>
0.0000

> <Gold.PLP.Chemscore.Metal>
0.8963

> <Gold.Chemscore.Hbonds>
donor molecule, donor type, donor heavy atom, donor atom, acceptor molecule, acceptor atom, score
      P1  H   966  2177       L1     1  1.00
      P1  M  1222  1222       L1     1  0.90

> <Gold.PLP.Chemscore.Internal.Correction>
0.0000

> <Gold.Protein.RotatedTorsions>
[ 1849  621  620  617 ] final  -10.69 input   60.00 | X-H torsion

> <Gold.Protein.ActiveResidues>
 HIS54   GLU57   HIS58   ALA61   PHE62   ILE76   ILE77   ASP78   ILE79   SER80  
 PRO81   GLN125  CYS126  GLY127  GLN128  HIS132  CO701  

> <Gold.Protein.RotatedAtoms>
  -19.5175   28.6988  -13.2480 H   0  0  0  0  0  0  0  0  0  0  0  0  # atno 1849 bound_to 621 
  -19.0681   27.3581  -14.0534 LP  0  0  0  0  0  0  0  0  0  0  0  0  # atno 2431 bound_to 621 
  -17.9917   28.1491  -13.1142 LP  0  0  0  0  0  0  0  0  0  0  0  0  # atno 2432 bound_to 621 

$$$$
Compound 65|DecoysActives|sdf|72|dock8
  -GOLD-   6112412133D 1   1.00000     0.00000

 23 23  0  0  0  0  0  0  0  0  1 V2000
  -26.2044   30.2674  -21.0267 O   0  0  0  0  0  0  0  0  0  0  0  0
  -25.8949   30.9186  -20.0222 C   0  0  0  0  0  0  0  0  0  0  0  0
  -26.2632   32.2290  -19.9762 N   0  0  0  0  0  0  0  0  0  0  0  0
  -25.0543   30.2921  -18.8895 C   0  0  2  0  0  0  0  0  0  0  0  0
  -26.2199   33.1755  -18.8774 C   0  0  0  0  0  0  0  0  0  0  0  0
  -25.0628   28.8476  -19.1156 N   0  0  0  0  0  0  0  0  0  0  0  0
  -25.6004   30.6406  -17.5056 C   0  0  0  0  0  0  0  0  0  0  0  0
  -24.9785   33.0928  -18.0056 C   0  0  0  0  0  0  0  0  0  0  0  0
  -26.2157   28.1335  -19.2773 C   0  0  0  0  0  0  0  0  0  0  0  0
  -25.0471   31.9644  -16.9770 C   0  0  0  0  0  0  0  0  0  0  0  0
  -27.3428   28.6052  -19.3076 O   0  0  0  0  0  0  0  0  0  0  0  0
  -26.7824   32.5070  -20.8019 H   0  0  0  0  0  0  0  0  0  0  0  0
  -24.0159   30.6243  -19.0042 H   0  0  0  0  0  0  0  0  0  0  0  0
  -26.2683   34.1677  -19.3398 H   0  0  0  0  0  0  0  0  0  0  0  0
  -27.1339   33.0463  -18.2876 H   0  0  0  0  0  0  0  0  0  0  0  0
  -24.1796   28.3571  -19.0021 H   0  0  0  0  0  0  0  0  0  0  0  0
  -25.3550   29.8630  -16.7723 H   0  0  0  0  0  0  0  0  0  0  0  0
  -26.6972   30.6832  -17.5323 H   0  0  0  0  0  0  0  0  0  0  0  0
  -24.8588   34.0366  -17.4598 H   0  0  0  0  0  0  0  0  0  0  0  0
  -24.0839   32.9827  -18.6303 H   0  0  0  0  0  0  0  0  0  0  0  0
  -26.0214   27.0530  -19.3811 H   0  0  0  0  0  0  0  0  0  0  0  0
  -25.6662   32.2825  -16.1289 H   0  0  0  0  0  0  0  0  0  0  0  0
  -24.0393   31.8026  -16.5748 H   0  0  0  0  0  0  0  0  0  0  0  0
  1  2  2  0  0  0  0
  2  3  1  0  0  0  0
  2  4  1  0  0  0  0
  3  5  1  0  0  0  0
  3 12  1  0  0  0  0
  4  6  1  0  0  0  0
  4  7  1  0  0  0  0
  4 13  1  0  0  0  0
  5  8  1  0  0  0  0
  5 14  1  0  0  0  0
  5 15  1  0  0  0  0
  6  9  1  0  0  0  0
  6 16  1  0  0  0  0
  7 10  1  0  0  0  0
  7 17  1  0  0  0  0
  7 18  1  0  0  0  0
  8 10  1  0  0  0  0
  8 19  1  0  0  0  0
  8 20  1  0  0  0  0
  9 11  2  0  0  0  0
  9 21  1  0  0  0  0
 10 22  1  0  0  0  0
 10 23  1  0  0  0  0
M  END
>  <Column 1>
O=CN[C@@H]1CCCCNC1=O ZINC000000007996

>  <Total Molweight>
156.184

>  <cLogP>
-0.6922

>  <cLogS>
-1.421

>  <H-Acceptors>
4

>  <H-Donors>
2

>  <Total Surface Area>
127.75

>  <MMFF94 Energy>
-9.4915

> <Gold.Version>
5.8.1

> <Gold.Id.Protein>
ID|2FQT|mol2

> <Gold.PLP.Fitness>
34.6474

> <Gold.PLP.PLP>
-22.7818

> <Gold.PLP.part.hbond>
-3.0000

> <Gold.PLP.part.metal>
-1.0000

> <Gold.PLP.part.buried>
-2.0787

> <Gold.PLP.part.nonpolar>
-16.9232

> <Gold.PLP.part.repulsive>
0.3047

> <Gold.PLP.ligand.clash>
0.0000

> <Gold.PLP.ligand.torsion>
0.0689

> <Gold.PLP.Chemscore.Hbond>
2.0000

> <Gold.PLP.Chemscore.CHOScore>
0.0000

> <Gold.PLP.Chemscore.Metal>
1.0000

> <Gold.Chemscore.Hbonds>
donor molecule, donor type, donor heavy atom, donor atom, acceptor molecule, acceptor atom, score
      L1  H     3    12       P1   954  1.00
      P1  H   966  2177       L1    11  1.00
      P1  M  1222  1222       L1    11  1.00

> <Gold.PLP.Chemscore.Internal.Correction>
0.0034

> <Gold.Protein.RotatedTorsions>
[ 1849  621  620  617 ] final   80.07 input   60.00 | X-H torsion

> <Gold.Protein.ActiveResidues>
 HIS54   GLU57   HIS58   ALA61   PHE62   ILE76   ILE77   ASP78   ILE79   SER80  
 PRO81   GLN125  CYS126  GLY127  GLN128  HIS132  CO701  

> <Gold.Protein.RotatedAtoms>
  -18.2352   28.5144  -12.9347 H   0  0  0  0  0  0  0  0  0  0  0  0  # atno 1849 bound_to 621 
  -19.7408   28.4007  -13.5416 LP  0  0  0  0  0  0  0  0  0  0  0  0  # atno 2431 bound_to 621 
  -18.6103   27.2922  -13.9416 LP  0  0  0  0  0  0  0  0  0  0  0  0  # atno 2432 bound_to 621 

$$$$
Compound 66|DecoysActives|sdf|73|dock2
  -GOLD-   6112412133D 1   1.00000     0.00000

 31 32  0  0  0  0  0  0  0  0  1 V2000
  -24.5500   33.1309  -14.9502 O   0  0  0  0  0  0  0  0  0  0  0  0
  -24.9290   33.5912  -16.0222 C   0  0  0  0  0  0  0  0  0  0  0  0
  -25.3162   32.7182  -17.1684 C   0  0  0  0  0  0  0  0  0  0  0  0
  -24.9889   35.0650  -16.2702 C   0  0  0  0  0  0  0  0  0  0  0  0
  -25.6314   33.2819  -18.4582 C   0  0  0  0  0  0  0  0  0  0  0  0
  -25.3034   31.3883  -16.9923 C   0  0  0  0  0  0  0  0  0  0  0  0
  -24.2117   35.8620  -15.5161 C   0  0  0  0  0  0  0  0  0  0  0  0
  -25.9111   35.5651  -17.3431 C   0  0  1  0  0  0  0  0  0  0  0  0
  -25.6990   34.7601  -18.6243 C   0  0  0  0  0  0  0  0  0  0  0  0
  -25.8980   32.4777  -19.4960 C   0  0  0  0  0  0  0  0  0  0  0  0
  -25.6138   30.4800  -18.1284 C   0  0  0  0  0  0  0  0  0  0  0  0
  -27.2645   35.3708  -16.9289 O   0  0  0  0  0  0  0  0  0  0  0  0
  -25.6245   35.2849  -19.7346 O   0  0  0  0  0  0  0  0  0  0  0  0
  -25.8881   31.0991  -19.3484 N   0  0  0  0  0  0  0  0  0  0  0  0
  -25.6055   29.2674  -17.9412 O   0  0  0  0  0  0  0  0  0  0  0  0
  -27.6819   36.3181  -15.9476 C   0  0  0  0  0  0  0  0  0  0  0  0
  -26.1921   30.2769  -20.5103 C   0  0  0  0  0  0  0  0  0  0  0  0
  -27.4443   37.7100  -16.4988 C   0  0  0  0  0  0  0  0  0  0  0  0
  -25.0572   30.9100  -16.0512 H   0  0  0  0  0  0  0  0  0  0  0  0
  -23.5622   35.4568  -14.7427 H   0  0  0  0  0  0  0  0  0  0  0  0
  -24.2089   36.9404  -15.6395 H   0  0  0  0  0  0  0  0  0  0  0  0
  -25.7139   36.6178  -17.5858 H   0  0  0  0  0  0  0  0  0  0  0  0
  -26.1438   32.8667  -20.4819 H   0  0  0  0  0  0  0  0  0  0  0  0
  -27.0999   36.1781  -15.0302 H   0  0  0  0  0  0  0  0  0  0  0  0
  -28.7457   36.1836  -15.7244 H   0  0  0  0  0  0  0  0  0  0  0  0
  -27.2052   30.5086  -20.8545 H   0  0  0  0  0  0  0  0  0  0  0  0
  -25.4743   30.5031  -21.3052 H   0  0  0  0  0  0  0  0  0  0  0  0
  -26.1356   29.2096  -20.2802 H   0  0  0  0  0  0  0  0  0  0  0  0
  -27.7484   38.4730  -15.7766 H   0  0  0  0  0  0  0  0  0  0  0  0
  -26.3861   37.8537  -16.7406 H   0  0  0  0  0  0  0  0  0  0  0  0
  -28.0061   37.8578  -17.4271 H   0  0  0  0  0  0  0  0  0  0  0  0
  1  2  2  0  0  0  0
  2  3  1  0  0  0  0
  2  4  1  0  0  0  0
  3  5  1  0  0  0  0
  3  6  2  0  0  0  0
  4  7  2  0  0  0  0
  4  8  1  0  0  0  0
  5  9  1  0  0  0  0
  5 10  2  0  0  0  0
  6 11  1  0  0  0  0
  6 19  1  0  0  0  0
  7 20  1  0  0  0  0
  7 21  1  0  0  0  0
  8 12  1  0  0  0  0
  8  9  1  0  0  0  0
  8 22  1  0  0  0  0
  9 13  2  0  0  0  0
 10 14  1  0  0  0  0
 10 23  1  0  0  0  0
 11 15  2  0  0  0  0
 11 14  1  0  0  0  0
 12 16  1  0  0  0  0
 14 17  1  0  0  0  0
 16 18  1  0  0  0  0
 16 24  1  0  0  0  0
 16 25  1  0  0  0  0
 17 26  1  0  0  0  0
 17 27  1  0  0  0  0
 17 28  1  0  0  0  0
 18 29  1  0  0  0  0
 18 30  1  0  0  0  0
 18 31  1  0  0  0  0
M  END
>  <Column 1>
C=C1C(=O)c2cc(=O)n(C)cc2C(=O)C1OCC ZINC000000008262

>  <Total Molweight>
247.249

>  <cLogP>
-0.0321

>  <cLogS>
-1.011

>  <H-Acceptors>
5

>  <H-Donors>
0

>  <Total Surface Area>
183

>  <MMFF94 Energy>
48.467

> <Gold.Version>
5.8.1

> <Gold.Id.Protein>
ID|2FQT|mol2

> <Gold.PLP.Fitness>
41.8298

> <Gold.PLP.PLP>
-39.0538

> <Gold.PLP.part.hbond>
-1.0000

> <Gold.PLP.part.metal>
0.0000

> <Gold.PLP.part.buried>
-0.0287

> <Gold.PLP.part.nonpolar>
-37.9738

> <Gold.PLP.part.repulsive>
0.4576

> <Gold.PLP.ligand.clash>
0.0000

> <Gold.PLP.ligand.torsion>
0.1163

> <Gold.PLP.Chemscore.Hbond>
0.0000

> <Gold.PLP.Chemscore.CHOScore>
1.0000

> <Gold.PLP.Chemscore.Metal>
0.0014

> <Gold.Chemscore.Hbonds>
donor molecule, donor type, donor heavy atom, donor atom, acceptor molecule, acceptor atom, score
      L1  C    10    23       P1   954  1.00
      P1  M  1222  1222       L1    15  0.00

> <Gold.PLP.Chemscore.Internal.Correction>
0.0004

> <Gold.Protein.RotatedTorsions>
[ 1849  621  620  617 ] final   96.03 input   60.00 | X-H torsion

> <Gold.Protein.ActiveResidues>
 HIS54   GLU57   HIS58   ALA61   PHE62   ILE76   ILE77   ASP78   ILE79   SER80  
 PRO81   GLN125  CYS126  GLY127  GLN128  HIS132  CO701  

> <Gold.Protein.RotatedAtoms>
  -18.0811   28.3225  -13.0184 H   0  0  0  0  0  0  0  0  0  0  0  0  # atno 1849 bound_to 621 
  -19.6465   28.5827  -13.3787 LP  0  0  0  0  0  0  0  0  0  0  0  0  # atno 2431 bound_to 621 
  -18.8598   27.3035  -14.0201 LP  0  0  0  0  0  0  0  0  0  0  0  0  # atno 2432 bound_to 621 

$$$$
Compound 67|DecoysActives|sdf|74|dock7
  -GOLD-   6112412133D 1   1.00000     0.00000

 35 37  0  0  0  0  0  0  0  0  1 V2000
  -26.2761   29.4807  -18.8163 S   0  0  0  0  0  0  0  0  0  0  0  0
  -26.5532   28.6050  -17.6990 O   0  0  0  0  0  0  0  0  0  0  0  0
  -27.0542   29.4233  -20.0354 O   0  0  0  0  0  0  0  0  0  0  0  0
  -26.3265   31.0962  -18.2577 N   0  0  0  0  0  0  0  0  0  0  0  0
  -24.5610   29.2702  -19.2301 C   0  0  0  0  0  0  0  0  0  0  0  0
  -25.3428   31.4111  -17.1613 C   0  0  0  0  0  0  0  0  0  0  0  0
  -26.1921   32.0973  -19.3810 C   0  0  0  0  0  0  0  0  0  0  0  0
  -24.1449   29.3450  -20.5642 C   0  0  0  0  0  0  0  0  0  0  0  0
  -23.6438   29.0206  -18.2015 C   0  0  0  0  0  0  0  0  0  0  0  0
  -25.6120   32.8222  -16.6158 C   0  0  2  0  0  0  0  0  0  0  0  0
  -26.4657   33.5184  -18.8679 C   0  0  0  0  0  0  0  0  0  0  0  0
  -22.7926   29.1800  -20.8665 C   0  0  0  0  0  0  0  0  0  0  0  0
  -22.2943   28.8571  -18.5137 C   0  0  0  0  0  0  0  0  0  0  0  0
  -25.6951   33.8062  -17.6707 N   0  0  0  0  0  0  0  0  0  0  0  0
  -24.4991   33.3753  -15.7378 C   0  0  0  0  0  0  0  0  0  0  0  0
  -21.8813   28.9398  -19.8409 C   0  0  0  0  0  0  0  0  0  0  0  0
  -25.1954   35.0369  -17.2994 C   0  0  0  0  0  0  0  0  0  0  0  0
  -24.6332   34.8898  -15.9041 C   0  0  0  0  0  0  0  0  0  0  0  0
  -20.5845   28.7846  -20.1370 F   0  0  0  0  0  0  0  0  0  0  0  0
  -25.2341   36.0672  -17.9482 O   0  0  0  0  0  0  0  0  0  0  0  0
  -25.4361   30.6938  -16.3406 H   0  0  0  0  0  0  0  0  0  0  0  0
  -24.3254   31.3456  -17.5661 H   0  0  0  0  0  0  0  0  0  0  0  0
  -25.1780   32.0383  -19.7944 H   0  0  0  0  0  0  0  0  0  0  0  0
  -26.9093   31.8719  -20.1766 H   0  0  0  0  0  0  0  0  0  0  0  0
  -24.8594   29.5243  -21.3646 H   0  0  0  0  0  0  0  0  0  0  0  0
  -23.9779   28.9498  -17.1685 H   0  0  0  0  0  0  0  0  0  0  0  0
  -26.5723   32.8444  -16.0839 H   0  0  0  0  0  0  0  0  0  0  0  0
  -27.5223   33.6204  -18.5935 H   0  0  0  0  0  0  0  0  0  0  0  0
  -26.2468   34.2653  -19.6375 H   0  0  0  0  0  0  0  0  0  0  0  0
  -22.4424   29.2314  -21.8933 H   0  0  0  0  0  0  0  0  0  0  0  0
  -21.5632   28.6609  -17.7352 H   0  0  0  0  0  0  0  0  0  0  0  0
  -24.5859   33.0577  -14.6947 H   0  0  0  0  0  0  0  0  0  0  0  0
  -23.5150   33.0587  -16.1056 H   0  0  0  0  0  0  0  0  0  0  0  0
  -25.3489   35.3081  -15.1896 H   0  0  0  0  0  0  0  0  0  0  0  0
  -23.6693   35.3957  -15.8135 H   0  0  0  0  0  0  0  0  0  0  0  0
  1  2  2  0  0  0  0
  1  3  2  0  0  0  0
  1  4  1  0  0  0  0
  1  5  1  0  0  0  0
  4  6  1  0  0  0  0
  4  7  1  0  0  0  0
  5  8  2  0  0  0  0
  5  9  1  0  0  0  0
  6 10  1  0  0  0  0
  6 21  1  0  0  0  0
  6 22  1  0  0  0  0
  7 11  1  0  0  0  0
  7 23  1  0  0  0  0
  7 24  1  0  0  0  0
  8 12  1  0  0  0  0
  8 25  1  0  0  0  0
  9 13  2  0  0  0  0
  9 26  1  0  0  0  0
 10 14  1  0  0  0  0
 10 15  1  0  0  0  0
 10 27  1  0  0  0  0
 11 14  1  0  0  0  0
 11 28  1  0  0  0  0
 11 29  1  0  0  0  0
 12 16  2  0  0  0  0
 12 30  1  0  0  0  0
 13 16  1  0  0  0  0
 13 31  1  0  0  0  0
 14 17  1  0  0  0  0
 15 18  1  0  0  0  0
 15 32  1  0  0  0  0
 15 33  1  0  0  0  0
 16 19  1  0  0  0  0
 17 20  2  0  0  0  0
 17 18  1  0  0  0  0
 18 34  1  0  0  0  0
 18 35  1  0  0  0  0
M  END
>  <Column 1>
O=C1CC[C@@H]2CN(S(=O)(=O)c3ccc(F)cc3)CCN12 ZINC000000008705

>  <Total Molweight>
298.337

>  <cLogP>
0.8761

>  <cLogS>
-1.384

>  <H-Acceptors>
5

>  <H-Donors>
0

>  <Total Surface Area>
200.84

>  <MMFF94 Energy>
8.5009

> <Gold.Version>
5.8.1

> <Gold.Id.Protein>
ID|2FQT|mol2

> <Gold.PLP.Fitness>
45.2747

> <Gold.PLP.PLP>
-25.6517

> <Gold.PLP.part.hbond>
-0.8558

> <Gold.PLP.part.metal>
-2.8080

> <Gold.PLP.part.buried>
0.8830

> <Gold.PLP.part.nonpolar>
-25.3747

> <Gold.PLP.part.repulsive>
0.9100

> <Gold.PLP.ligand.clash>
0.0000

> <Gold.PLP.ligand.torsion>
1.3119

> <Gold.PLP.Chemscore.Hbond>
0.9425

> <Gold.PLP.Chemscore.CHOScore>
0.0000

> <Gold.PLP.Chemscore.Metal>
2.8694

> <Gold.Chemscore.Hbonds>
donor molecule, donor type, donor heavy atom, donor atom, acceptor molecule, acceptor atom, score
      P1  H   966  2177       L1     3  0.94
      P1  M  1222  1222       L1     2  0.99
      P1  M  1222  1222       L1     3  0.99
      P1  M  1222  1222       L1     4  0.90

> <Gold.PLP.Chemscore.Internal.Correction>
2.2027

> <Gold.Protein.RotatedTorsions>
[ 1849  621  620  617 ] final   73.87 input   60.00 | X-H torsion

> <Gold.Protein.ActiveResidues>
 HIS54   GLU57   HIS58   ALA61   PHE62   ILE76   ILE77   ASP78   ILE79   SER80  
 PRO81   GLN125  CYS126  GLY127  GLN128  HIS132  CO701  

> <Gold.Protein.RotatedAtoms>
  -18.3089   28.5804  -12.9130 H   0  0  0  0  0  0  0  0  0  0  0  0  # atno 1849 bound_to 621 
  -19.7594   28.3222  -13.6041 LP  0  0  0  0  0  0  0  0  0  0  0  0  # atno 2431 bound_to 621 
  -18.5175   27.3042  -13.9009 LP  0  0  0  0  0  0  0  0  0  0  0  0  # atno 2432 bound_to 621 

$$$$
Compound 68|DecoysActives|sdf|75|dock2
  -GOLD-   6112412133D 1   1.00000     0.00000

 29 30  0  0  0  0  0  0  0  0  1 V2000
  -26.1299   29.2547  -19.2223 S   0  0  0  0  0  0  0  0  0  0  0  0
  -26.5111   28.9040  -17.8678 O   0  0  0  0  0  0  0  0  0  0  0  0
  -27.0904   29.8688  -20.1113 O   0  0  0  0  0  0  0  0  0  0  0  0
  -24.7790   30.2513  -19.0230 N   0  0  0  0  0  0  0  0  0  0  0  0
  -25.4311   27.7986  -19.9745 C   0  0  0  0  0  0  0  0  0  0  0  0
  -25.0012   31.4178  -18.2403 C   0  0  0  0  0  0  0  0  0  0  0  0
  -25.6576   32.6433  -18.7669 C   0  0  0  0  0  0  0  0  0  0  0  0
  -24.5235   31.4234  -16.9923 C   0  0  0  0  0  0  0  0  0  0  0  0
  -25.9596   32.7658  -19.9500 O   0  0  0  0  0  0  0  0  0  0  0  0
  -25.8780   33.7433  -17.7924 C   0  0  0  0  0  0  0  0  0  0  0  0
  -24.6459   32.4736  -16.0949 N   0  0  0  0  0  0  0  0  0  0  0  0
  -25.3595   33.6360  -16.4806 C   0  0  0  0  0  0  0  0  0  0  0  0
  -26.5870   34.8786  -18.2135 C   0  0  0  0  0  0  0  0  0  0  0  0
  -24.1080   32.3976  -14.7367 C   0  0  0  0  0  0  0  0  0  0  0  0
  -25.5902   34.7191  -15.6151 C   0  0  0  0  0  0  0  0  0  0  0  0
  -26.7983   35.9323  -17.3305 C   0  0  0  0  0  0  0  0  0  0  0  0
  -26.3006   35.8521  -16.0340 C   0  0  0  0  0  0  0  0  0  0  0  0
  -23.9769   29.6731  -18.7740 H   0  0  0  0  0  0  0  0  0  0  0  0
  -25.0855   28.0205  -20.9816 H   0  0  0  0  0  0  0  0  0  0  0  0
  -24.6117   27.4388  -19.3492 H   0  0  0  0  0  0  0  0  0  0  0  0
  -26.2167   27.0406  -20.0189 H   0  0  0  0  0  0  0  0  0  0  0  0
  -24.0092   30.5605  -16.5808 H   0  0  0  0  0  0  0  0  0  0  0  0
  -26.9751   34.9378  -19.2283 H   0  0  0  0  0  0  0  0  0  0  0  0
  -23.5545   31.4653  -14.5752 H   0  0  0  0  0  0  0  0  0  0  0  0
  -23.4064   33.2175  -14.5460 H   0  0  0  0  0  0  0  0  0  0  0  0
  -24.9139   32.4240  -13.9949 H   0  0  0  0  0  0  0  0  0  0  0  0
  -25.2285   34.7124  -14.5914 H   0  0  0  0  0  0  0  0  0  0  0  0
  -27.3499   36.8117  -17.6531 H   0  0  0  0  0  0  0  0  0  0  0  0
  -26.4651   36.6735  -15.3401 H   0  0  0  0  0  0  0  0  0  0  0  0
  1  2  2  0  0  0  0
  1  3  2  0  0  0  0
  1  4  1  0  0  0  0
  1  5  1  0  0  0  0
  4  6  1  0  0  0  0
  4 18  1  0  0  0  0
  5 19  1  0  0  0  0
  5 20  1  0  0  0  0
  5 21  1  0  0  0  0
  6  7  1  0  0  0  0
  6  8  2  0  0  0  0
  7  9  2  0  0  0  0
  7 10  1  0  0  0  0
  8 11  1  0  0  0  0
  8 22  1  0  0  0  0
 10 12  2  0  0  0  0
 10 13  1  0  0  0  0
 11 14  1  0  0  0  0
 11 12  1  0  0  0  0
 12 15  1  0  0  0  0
 13 16  2  0  0  0  0
 13 23  1  0  0  0  0
 14 24  1  0  0  0  0
 14 25  1  0  0  0  0
 14 26  1  0  0  0  0
 15 17  2  0  0  0  0
 15 27  1  0  0  0  0
 16 17  1  0  0  0  0
 16 28  1  0  0  0  0
 17 29  1  0  0  0  0
M  END
>  <Column 1>
Cn1cc(NS(C)(=O)=O)c(=O)c2ccccc21 ZINC000000008845

>  <Total Molweight>
252.293

>  <cLogP>
0.6077

>  <cLogS>
-3.353

>  <H-Acceptors>
5

>  <H-Donors>
1

>  <Total Surface Area>
177.08

>  <MMFF94 Energy>
17.122

> <Gold.Version>
5.8.1

> <Gold.Id.Protein>
ID|2FQT|mol2

> <Gold.PLP.Fitness>
53.8670

> <Gold.PLP.PLP>
-39.5589

> <Gold.PLP.part.hbond>
-1.0000

> <Gold.PLP.part.metal>
-2.0000

> <Gold.PLP.part.buried>
-1.6456

> <Gold.PLP.part.nonpolar>
-37.0812

> <Gold.PLP.part.repulsive>
2.4533

> <Gold.PLP.ligand.clash>
0.0000

> <Gold.PLP.ligand.torsion>
0.3391

> <Gold.PLP.Chemscore.Hbond>
1.0000

> <Gold.PLP.Chemscore.CHOScore>
0.0000

> <Gold.PLP.Chemscore.Metal>
1.9865

> <Gold.Chemscore.Hbonds>
donor molecule, donor type, donor heavy atom, donor atom, acceptor molecule, acceptor atom, score
      P1  H   966  2177       L1     3  1.00
      P1  M  1222  1222       L1     2  1.00
      P1  M  1222  1222       L1     3  0.99

> <Gold.PLP.Chemscore.Internal.Correction>
0.0671

> <Gold.Protein.RotatedTorsions>
[ 1849  621  620  617 ] final   69.51 input   60.00 | X-H torsion

> <Gold.Protein.ActiveResidues>
 HIS54   GLU57   HIS58   ALA61   PHE62   ILE76   ILE77   ASP78   ILE79   SER80  
 PRO81   GLN125  CYS126  GLY127  GLN128  HIS132  CO701  

> <Gold.Protein.RotatedAtoms>
  -18.3645   28.6233  -12.9017 H   0  0  0  0  0  0  0  0  0  0  0  0  # atno 1849 bound_to 621 
  -19.7661   28.2653  -13.6471 LP  0  0  0  0  0  0  0  0  0  0  0  0  # atno 2431 bound_to 621 
  -18.4547   27.3179  -13.8692 LP  0  0  0  0  0  0  0  0  0  0  0  0  # atno 2432 bound_to 621 

$$$$
Compound 69|DecoysActives|sdf|76|dock2
  -GOLD-   6112412133D 1   1.00000     0.00000

 17 18  0  0  0  0  0  0  0  0  1 V2000
  -25.8482   30.8472  -19.9311 S   0  0  0  0  0  0  0  0  0  0  0  0
  -27.1416   30.2604  -19.6731 O   0  0  0  0  0  0  0  0  0  0  0  0
  -25.0474   30.4926  -21.0733 O   0  0  0  0  0  0  0  0  0  0  0  0
  -26.0217   32.5388  -19.8447 N   0  0  0  0  0  0  0  0  0  0  0  0
  -24.9245   30.7087  -18.5076 N   0  0  0  0  0  0  0  0  0  0  0  0
  -25.8859   32.8608  -18.4620 C   0  0  0  0  0  0  0  0  0  0  0  0
  -25.2762   31.8437  -17.7189 C   0  0  0  0  0  0  0  0  0  0  0  0
  -26.1930   34.0820  -17.8945 C   0  0  0  0  0  0  0  0  0  0  0  0
  -24.9559   32.0184  -16.3868 C   0  0  0  0  0  0  0  0  0  0  0  0
  -25.9055   34.2604  -16.5378 C   0  0  0  0  0  0  0  0  0  0  0  0
  -25.2925   33.2375  -15.7906 C   0  0  0  0  0  0  0  0  0  0  0  0
  -26.8655   32.8612  -20.3123 H   0  0  0  0  0  0  0  0  0  0  0  0
  -25.0275   29.7951  -18.0721 H   0  0  0  0  0  0  0  0  0  0  0  0
  -26.6308   34.8835  -18.4786 H   0  0  0  0  0  0  0  0  0  0  0  0
  -24.4497   31.2451  -15.8202 H   0  0  0  0  0  0  0  0  0  0  0  0
  -26.1394   35.2084  -16.0572 H   0  0  0  0  0  0  0  0  0  0  0  0
  -25.0595   33.4067  -14.7410 H   0  0  0  0  0  0  0  0  0  0  0  0
  1  2  2  0  0  0  0
  1  3  2  0  0  0  0
  1  4  1  0  0  0  0
  1  5  1  0  0  0  0
  4  6  1  0  0  0  0
  4 12  1  0  0  0  0
  5  7  1  0  0  0  0
  5 13  1  0  0  0  0
  6  8  1  0  0  0  0
  6  7  2  0  0  0  0
  7  9  1  0  0  0  0
  8 10  2  0  0  0  0
  8 14  1  0  0  0  0
  9 11  2  0  0  0  0
  9 15  1  0  0  0  0
 10 11  1  0  0  0  0
 10 16  1  0  0  0  0
 11 17  1  0  0  0  0
M  END
>  <Column 1>
O=S1(=O)Nc2ccccc2N1 ZINC000000009186

>  <Total Molweight>
170.192

>  <cLogP>
1.4606

>  <cLogS>
-2.844

>  <H-Acceptors>
4

>  <H-Donors>
2

>  <Total Surface Area>
111.26

>  <MMFF94 Energy>
-106.43

> <Gold.Version>
5.8.1

> <Gold.Id.Protein>
ID|2FQT|mol2

> <Gold.PLP.Fitness>
39.4311

> <Gold.PLP.PLP>
-27.4311

> <Gold.PLP.part.hbond>
-2.0000

> <Gold.PLP.part.metal>
-0.9967

> <Gold.PLP.part.buried>
-3.7047

> <Gold.PLP.part.nonpolar>
-21.2303

> <Gold.PLP.part.repulsive>
0.0996

> <Gold.PLP.ligand.clash>
0.0000

> <Gold.PLP.ligand.torsion>
0.0000

> <Gold.PLP.Chemscore.Hbond>
2.0000

> <Gold.PLP.Chemscore.CHOScore>
0.0000

> <Gold.PLP.Chemscore.Metal>
1.0000

> <Gold.Chemscore.Hbonds>
donor molecule, donor type, donor heavy atom, donor atom, acceptor molecule, acceptor atom, score
      L1  H     4    12       P1   954  1.00
      P1  H   966  2177       L1     2  1.00
      P1  M  1222  1222       L1     2  1.00

> <Gold.PLP.Chemscore.Internal.Correction>
0.0000

> <Gold.Protein.RotatedTorsions>
[ 1849  621  620  617 ] final  116.07 input   60.00 | X-H torsion

> <Gold.Protein.ActiveResidues>
 HIS54   GLU57   HIS58   ALA61   PHE62   ILE76   ILE77   ASP78   ILE79   SER80  
 PRO81   GLN125  CYS126  GLY127  GLN128  HIS132  CO701  

> <Gold.Protein.RotatedAtoms>
  -17.9738   28.0559  -13.1717 H   0  0  0  0  0  0  0  0  0  0  0  0  # atno 1849 bound_to 621 
  -19.4437   28.7538  -13.1860 LP  0  0  0  0  0  0  0  0  0  0  0  0  # atno 2431 bound_to 621 
  -19.1707   27.4008  -14.0585 LP  0  0  0  0  0  0  0  0  0  0  0  0  # atno 2432 bound_to 621 

$$$$
Compound 70|DecoysActives|sdf|77|dock3
  -GOLD-   6112412133D 1   1.00000     0.00000

 24 26  0  0  0  0  0  0  0  0  1 V2000
  -24.6303   31.5495  -16.5749 N   0  0  0  0  0  0  0  0  0  0  0  0
  -25.3852   31.9209  -17.6326 C   0  0  0  0  0  0  0  0  0  0  0  0
  -24.4024   32.4828  -15.6453 C   0  0  0  0  0  0  0  0  0  0  0  0
  -25.6329   30.9334  -18.6272 N   0  0  0  0  0  0  0  0  0  0  0  0
  -25.9055   33.1972  -17.7664 C   0  0  0  0  0  0  0  0  0  0  0  0
  -24.8561   33.7395  -15.6779 N   0  0  0  0  0  0  0  0  0  0  0  0
  -26.2971   31.1533  -19.8140 C   0  0  0  0  0  0  0  0  0  0  0  0
  -25.2850   29.6001  -18.6339 C   0  0  0  0  0  0  0  0  0  0  0  0
  -25.6087   34.0855  -16.7469 C   0  0  0  0  0  0  0  0  0  0  0  0
  -26.3863   30.0665  -20.5493 N   0  0  0  0  0  0  0  0  0  0  0  0
  -25.7592   29.0950  -19.8230 C   0  0  0  0  0  0  0  0  0  0  0  0
  -26.0946   35.4239  -16.7864 N   0  0  0  0  0  0  0  0  0  0  0  0
  -26.5002   36.1626  -17.8744 C   0  0  0  0  0  0  0  0  0  0  0  0
  -26.2519   36.2529  -15.6950 C   0  0  0  0  0  0  0  0  0  0  0  0
  -26.8927   37.3737  -17.5427 N   0  0  0  0  0  0  0  0  0  0  0  0
  -26.7412   37.4388  -16.1855 C   0  0  0  0  0  0  0  0  0  0  0  0
  -23.7976   32.1958  -14.7914 H   0  0  0  0  0  0  0  0  0  0  0  0
  -26.5065   33.4789  -18.6166 H   0  0  0  0  0  0  0  0  0  0  0  0
  -26.6906   32.1255  -20.0830 H   0  0  0  0  0  0  0  0  0  0  0  0
  -24.7485   29.1160  -17.8332 H   0  0  0  0  0  0  0  0  0  0  0  0
  -25.6804   28.0801  -20.1923 H   0  0  0  0  0  0  0  0  0  0  0  0
  -26.4965   35.7885  -18.8880 H   0  0  0  0  0  0  0  0  0  0  0  0
  -26.0070   35.9310  -14.6923 H   0  0  0  0  0  0  0  0  0  0  0  0
  -26.9916   38.3346  -15.6311 H   0  0  0  0  0  0  0  0  0  0  0  0
  1  2  2  0  0  0  0
  1  3  1  0  0  0  0
  2  4  1  0  0  0  0
  2  5  1  0  0  0  0
  3  6  2  0  0  0  0
  3 17  1  0  0  0  0
  4  7  1  0  0  0  0
  4  8  1  0  0  0  0
  5  9  2  0  0  0  0
  5 18  1  0  0  0  0
  6  9  1  0  0  0  0
  7 10  2  0  0  0  0
  7 19  1  0  0  0  0
  8 11  2  0  0  0  0
  8 20  1  0  0  0  0
  9 12  1  0  0  0  0
 10 11  1  0  0  0  0
 11 21  1  0  0  0  0
 12 13  1  0  0  0  0
 12 14  1  0  0  0  0
 13 15  2  0  0  0  0
 13 22  1  0  0  0  0
 14 16  2  0  0  0  0
 14 23  1  0  0  0  0
 15 16  1  0  0  0  0
 16 24  1  0  0  0  0
M  END
>  <Column 1>
c1cn(-c2cc(-n3ccnc3)ncn2)cn1 ZINC000000009769

>  <Total Molweight>
212.216

>  <cLogP>
2.2216

>  <cLogS>
-3.05

>  <H-Acceptors>
6

>  <H-Donors>
0

>  <Total Surface Area>
166.22

>  <MMFF94 Energy>
23.944

> <Gold.Version>
5.8.1

> <Gold.Id.Protein>
ID|2FQT|mol2

> <Gold.PLP.Fitness>
45.9041

> <Gold.PLP.PLP>
-38.4047

> <Gold.PLP.part.hbond>
-1.0000

> <Gold.PLP.part.metal>
0.0000

> <Gold.PLP.part.buried>
-3.3425

> <Gold.PLP.part.nonpolar>
-34.6970

> <Gold.PLP.part.repulsive>
0.3026

> <Gold.PLP.ligand.clash>
0.0000

> <Gold.PLP.ligand.torsion>
0.2284

> <Gold.PLP.Chemscore.Hbond>
0.6521

> <Gold.PLP.Chemscore.CHOScore>
2.0000

> <Gold.PLP.Chemscore.Metal>
0.0000

> <Gold.Chemscore.Hbonds>
donor molecule, donor type, donor heavy atom, donor atom, acceptor molecule, acceptor atom, score
      P1  H   966  2177       L1    10  0.65
      L1  C     7    19       P1   954  1.00
      L1  C    14    23       P1   431  1.00

> <Gold.PLP.Chemscore.Internal.Correction>
0.0000

> <Gold.Protein.RotatedTorsions>
[ 1849  621  620  617 ] final -148.88 input   60.00 | X-H torsion

> <Gold.Protein.ActiveResidues>
 HIS54   GLU57   HIS58   ALA61   PHE62   ILE76   ILE77   ASP78   ILE79   SER80  
 PRO81   GLN125  CYS126  GLY127  GLN128  HIS132  CO701  

> <Gold.Protein.RotatedAtoms>
  -18.7833   27.2977  -13.9948 H   0  0  0  0  0  0  0  0  0  0  0  0  # atno 1849 bound_to 621 
  -18.1167   28.3878  -12.9870 LP  0  0  0  0  0  0  0  0  0  0  0  0  # atno 2431 bound_to 621 
  -19.6824   28.5303  -13.4286 LP  0  0  0  0  0  0  0  0  0  0  0  0  # atno 2432 bound_to 621 

$$$$
Compound 71|DecoysActives|sdf|78|dock1
  -GOLD-   6112412133D 1   1.00000     0.00000

 21 22  0  0  0  0  0  0  0  0  1 V2000
  -25.3844   31.2648  -18.4373 O   0  0  0  0  0  0  0  0  0  0  0  0
  -25.4032   32.2539  -17.4967 C   0  0  0  0  0  0  0  0  0  0  0  0
  -25.2305   29.9275  -17.9875 C   0  0  0  0  0  0  0  0  0  0  0  0
  -24.8743   31.8534  -16.3293 N   0  0  0  0  0  0  0  0  0  0  0  0
  -25.8993   33.5267  -17.6885 C   0  0  0  0  0  0  0  0  0  0  0  0
  -24.8467   32.7519  -15.3421 C   0  0  0  0  0  0  0  0  0  0  0  0
  -25.8241   34.3820  -16.6034 C   0  0  0  0  0  0  0  0  0  0  0  0
  -25.2981   34.0086  -15.4166 N   0  0  0  0  0  0  0  0  0  0  0  0
  -26.3099   35.7154  -16.7037 N   0  0  0  0  0  0  0  0  0  0  0  0
  -26.5051   36.4017  -17.8824 C   0  0  0  0  0  0  0  0  0  0  0  0
  -26.6788   36.5844  -15.6995 C   0  0  0  0  0  0  0  0  0  0  0  0
  -26.9626   37.6193  -17.6863 N   0  0  0  0  0  0  0  0  0  0  0  0
  -27.0738   37.7416  -16.3309 C   0  0  0  0  0  0  0  0  0  0  0  0
  -26.0667   29.6269  -17.3475 H   0  0  0  0  0  0  0  0  0  0  0  0
  -25.2339   29.2755  -18.8663 H   0  0  0  0  0  0  0  0  0  0  0  0
  -24.2720   29.7901  -17.4757 H   0  0  0  0  0  0  0  0  0  0  0  0
  -26.3205   33.8325  -18.6321 H   0  0  0  0  0  0  0  0  0  0  0  0
  -24.4205   32.4329  -14.3972 H   0  0  0  0  0  0  0  0  0  0  0  0
  -26.2950   35.9589  -18.8479 H   0  0  0  0  0  0  0  0  0  0  0  0
  -26.6392   36.3375  -14.6502 H   0  0  0  0  0  0  0  0  0  0  0  0
  -27.4327   38.6569  -15.8770 H   0  0  0  0  0  0  0  0  0  0  0  0
  1  2  1  0  0  0  0
  1  3  1  0  0  0  0
  2  4  2  0  0  0  0
  2  5  1  0  0  0  0
  3 14  1  0  0  0  0
  3 15  1  0  0  0  0
  3 16  1  0  0  0  0
  4  6  1  0  0  0  0
  5  7  2  0  0  0  0
  5 17  1  0  0  0  0
  6  8  2  0  0  0  0
  6 18  1  0  0  0  0
  7  9  1  0  0  0  0
  7  8  1  0  0  0  0
  9 10  1  0  0  0  0
  9 11  1  0  0  0  0
 10 12  2  0  0  0  0
 10 19  1  0  0  0  0
 11 13  2  0  0  0  0
 11 20  1  0  0  0  0
 12 13  1  0  0  0  0
 13 21  1  0  0  0  0
M  END
>  <Column 1>
COc1cc(-n2ccnc2)ncn1 ZINC000000009770

>  <Total Molweight>
176.179

>  <cLogP>
1.4404

>  <cLogS>
-2.374

>  <H-Acceptors>
5

>  <H-Donors>
0

>  <Total Surface Area>
140.76

>  <MMFF94 Energy>
-8.7743

> <Gold.Version>
5.8.1

> <Gold.Id.Protein>
ID|2FQT|mol2

> <Gold.PLP.Fitness>
35.5330

> <Gold.PLP.PLP>
-33.4230

> <Gold.PLP.part.hbond>
0.0000

> <Gold.PLP.part.metal>
0.0000

> <Gold.PLP.part.buried>
-4.0364

> <Gold.PLP.part.nonpolar>
-29.9681

> <Gold.PLP.part.repulsive>
0.2949

> <Gold.PLP.ligand.clash>
0.0000

> <Gold.PLP.ligand.torsion>
0.4450

> <Gold.PLP.Chemscore.Hbond>
0.0000

> <Gold.PLP.Chemscore.CHOScore>
1.0000

> <Gold.PLP.Chemscore.Metal>
0.0000

> <Gold.Chemscore.Hbonds>
donor molecule, donor type, donor heavy atom, donor atom, acceptor molecule, acceptor atom, score
      L1  C    11    20       P1   431  1.00

> <Gold.PLP.Chemscore.Internal.Correction>
0.0000

> <Gold.Protein.RotatedTorsions>
[ 1849  621  620  617 ] final -122.90 input   60.00 | X-H torsion

> <Gold.Protein.ActiveResidues>
 HIS54   GLU57   HIS58   ALA61   PHE62   ILE76   ILE77   ASP78   ILE79   SER80  
 PRO81   GLN125  CYS126  GLY127  GLN128  HIS132  CO701  

> <Gold.Protein.RotatedAtoms>
  -19.1843   27.4115  -14.0526 H   0  0  0  0  0  0  0  0  0  0  0  0  # atno 1849 bound_to 621 
  -17.9642   28.0430  -13.1805 LP  0  0  0  0  0  0  0  0  0  0  0  0  # atno 2431 bound_to 621 
  -19.4311   28.7605  -13.1768 LP  0  0  0  0  0  0  0  0  0  0  0  0  # atno 2432 bound_to 621 

$$$$
Compound 72|DecoysActives|sdf|79|dock2
  -GOLD-   6112412133D 1   1.00000     0.00000

 24 25  0  0  0  0  0  0  0  0  1 V2000
  -26.1814   30.9970  -18.3849 O   0  0  0  0  0  0  0  0  0  0  0  0
  -25.7362   31.9502  -17.4894 C   0  0  0  0  0  0  0  0  0  0  0  0
  -26.5491   31.5380  -19.6501 C   0  0  0  0  0  0  0  0  0  0  0  0
  -26.1927   33.2104  -17.5690 N   0  0  0  0  0  0  0  0  0  0  0  0
  -24.8272   31.5188  -16.5526 C   0  0  0  0  0  0  0  0  0  0  0  0
  -25.7036   34.0700  -16.6557 C   0  0  0  0  0  0  0  0  0  0  0  0
  -24.3820   32.4677  -15.6588 C   0  0  0  0  0  0  0  0  0  0  0  0
  -24.8095   33.7463  -15.6962 N   0  0  0  0  0  0  0  0  0  0  0  0
  -26.1598   35.4119  -16.7041 N   0  0  0  0  0  0  0  0  0  0  0  0
  -23.3899   32.1011  -14.5969 C   0  0  0  0  0  0  0  0  0  0  0  0
  -26.7042   36.0487  -17.7929 C   0  0  0  0  0  0  0  0  0  0  0  0
  -26.1495   36.3361  -15.6825 C   0  0  0  0  0  0  0  0  0  0  0  0
  -27.0327   37.2956  -17.5280 N   0  0  0  0  0  0  0  0  0  0  0  0
  -26.6902   37.4821  -16.2150 C   0  0  0  0  0  0  0  0  0  0  0  0
  -25.6919   32.0084  -20.1442 H   0  0  0  0  0  0  0  0  0  0  0  0
  -26.8845   30.7100  -20.2818 H   0  0  0  0  0  0  0  0  0  0  0  0
  -27.3824   32.2422  -19.5527 H   0  0  0  0  0  0  0  0  0  0  0  0
  -24.4879   30.4922  -16.5274 H   0  0  0  0  0  0  0  0  0  0  0  0
  -23.1452   32.9689  -13.9760 H   0  0  0  0  0  0  0  0  0  0  0  0
  -23.8012   31.3225  -13.9472 H   0  0  0  0  0  0  0  0  0  0  0  0
  -22.4641   31.7372  -15.0535 H   0  0  0  0  0  0  0  0  0  0  0  0
  -26.8344   35.5532  -18.7461 H   0  0  0  0  0  0  0  0  0  0  0  0
  -25.7685   36.0975  -14.6996 H   0  0  0  0  0  0  0  0  0  0  0  0
  -26.8507   38.4321  -15.7214 H   0  0  0  0  0  0  0  0  0  0  0  0
  1  2  1  0  0  0  0
  1  3  1  0  0  0  0
  2  4  2  0  0  0  0
  2  5  1  0  0  0  0
  3 15  1  0  0  0  0
  3 16  1  0  0  0  0
  3 17  1  0  0  0  0
  4  6  1  0  0  0  0
  5  7  2  0  0  0  0
  5 18  1  0  0  0  0
  6  8  2  0  0  0  0
  6  9  1  0  0  0  0
  7 10  1  0  0  0  0
  7  8  1  0  0  0  0
  9 11  1  0  0  0  0
  9 12  1  0  0  0  0
 10 19  1  0  0  0  0
 10 20  1  0  0  0  0
 10 21  1  0  0  0  0
 11 13  2  0  0  0  0
 11 22  1  0  0  0  0
 12 14  2  0  0  0  0
 12 23  1  0  0  0  0
 13 14  1  0  0  0  0
 14 24  1  0  0  0  0
M  END
>  <Column 1>
COc1cc(C)nc(-n2ccnc2)n1 ZINC000000009771

>  <Total Molweight>
190.205

>  <cLogP>
1.0356

>  <cLogS>
-1.271

>  <H-Acceptors>
5

>  <H-Donors>
0

>  <Total Surface Area>
153.02

>  <MMFF94 Energy>
-1.8411

> <Gold.Version>
5.8.1

> <Gold.Id.Protein>
ID|2FQT|mol2

> <Gold.PLP.Fitness>
37.8816

> <Gold.PLP.PLP>
-31.8709

> <Gold.PLP.part.hbond>
0.0000

> <Gold.PLP.part.metal>
-0.3200

> <Gold.PLP.part.buried>
-1.1971

> <Gold.PLP.part.nonpolar>
-29.1772

> <Gold.PLP.part.repulsive>
0.2004

> <Gold.PLP.ligand.clash>
0.0000

> <Gold.PLP.ligand.torsion>
0.5865

> <Gold.PLP.Chemscore.Hbond>
0.0000

> <Gold.PLP.Chemscore.CHOScore>
1.0000

> <Gold.PLP.Chemscore.Metal>
0.6973

> <Gold.Chemscore.Hbonds>
donor molecule, donor type, donor heavy atom, donor atom, acceptor molecule, acceptor atom, score
      L1  C    12    23       P1   431  1.00
      P1  M  1222  1222       L1     1  0.70

> <Gold.PLP.Chemscore.Internal.Correction>
0.0000

> <Gold.Protein.RotatedTorsions>
[ 1849  621  620  617 ] final  144.19 input   60.00 | X-H torsion

> <Gold.Protein.ActiveResidues>
 HIS54   GLU57   HIS58   ALA61   PHE62   ILE76   ILE77   ASP78   ILE79   SER80  
 PRO81   GLN125  CYS126  GLY127  GLN128  HIS132  CO701  

> <Gold.Protein.RotatedAtoms>
  -18.0048   27.6917  -13.4428 H   0  0  0  0  0  0  0  0  0  0  0  0  # atno 1849 bound_to 621 
  -19.0472   28.8518  -12.9783 LP  0  0  0  0  0  0  0  0  0  0  0  0  # atno 2431 bound_to 621 
  -19.5360   27.6696  -13.9932 LP  0  0  0  0  0  0  0  0  0  0  0  0  # atno 2432 bound_to 621 

$$$$
Compound 73|DecoysActives|sdf|80|dock2
  -GOLD-   6112412133D 1   1.00000     0.00000

 24 25  0  0  0  0  0  0  0  0  1 V2000
  -25.5781   30.9767  -18.5416 O   0  0  0  0  0  0  0  0  0  0  0  0
  -25.2842   31.8571  -17.5177 C   0  0  0  0  0  0  0  0  0  0  0  0
  -26.2081   31.5984  -19.6574 C   0  0  0  0  0  0  0  0  0  0  0  0
  -25.8952   33.0514  -17.4650 N   0  0  0  0  0  0  0  0  0  0  0  0
  -24.3557   31.4243  -16.6009 C   0  0  0  0  0  0  0  0  0  0  0  0
  -25.5471   33.8476  -16.4300 C   0  0  0  0  0  0  0  0  0  0  0  0
  -24.0605   32.2990  -15.5793 C   0  0  0  0  0  0  0  0  0  0  0  0
  -24.6450   33.5086  -15.4806 N   0  0  0  0  0  0  0  0  0  0  0  0
  -26.1829   35.1347  -16.3431 N   0  0  0  0  0  0  0  0  0  0  0  0
  -23.0619   31.9273  -14.5257 C   0  0  0  0  0  0  0  0  0  0  0  0
  -27.4000   35.4033  -16.9024 N   0  0  0  0  0  0  0  0  0  0  0  0
  -25.6751   36.2530  -15.7031 C   0  0  0  0  0  0  0  0  0  0  0  0
  -27.6311   36.6820  -16.6028 C   0  0  0  0  0  0  0  0  0  0  0  0
  -26.5932   37.2626  -15.8582 C   0  0  0  0  0  0  0  0  0  0  0  0
  -25.5550   32.3507  -20.1131 H   0  0  0  0  0  0  0  0  0  0  0  0
  -26.3980   30.8242  -20.4072 H   0  0  0  0  0  0  0  0  0  0  0  0
  -27.1734   32.0336  -19.3760 H   0  0  0  0  0  0  0  0  0  0  0  0
  -23.8897   30.4520  -16.6854 H   0  0  0  0  0  0  0  0  0  0  0  0
  -22.0841   31.7400  -14.9804 H   0  0  0  0  0  0  0  0  0  0  0  0
  -22.9485   32.7337  -13.7939 H   0  0  0  0  0  0  0  0  0  0  0  0
  -23.3896   31.0286  -13.9940 H   0  0  0  0  0  0  0  0  0  0  0  0
  -24.7166   36.2151  -15.2052 H   0  0  0  0  0  0  0  0  0  0  0  0
  -28.5524   37.1384  -16.9424 H   0  0  0  0  0  0  0  0  0  0  0  0
  -26.5226   38.2747  -15.4861 H   0  0  0  0  0  0  0  0  0  0  0  0
  1  2  1  0  0  0  0
  1  3  1  0  0  0  0
  2  4  2  0  0  0  0
  2  5  1  0  0  0  0
  3 15  1  0  0  0  0
  3 16  1  0  0  0  0
  3 17  1  0  0  0  0
  4  6  1  0  0  0  0
  5  7  2  0  0  0  0
  5 18  1  0  0  0  0
  6  8  2  0  0  0  0
  6  9  1  0  0  0  0
  7 10  1  0  0  0  0
  7  8  1  0  0  0  0
  9 11  1  0  0  0  0
  9 12  1  0  0  0  0
 10 19  1  0  0  0  0
 10 20  1  0  0  0  0
 10 21  1  0  0  0  0
 11 13  2  0  0  0  0
 12 14  2  0  0  0  0
 12 22  1  0  0  0  0
 13 14  1  0  0  0  0
 13 23  1  0  0  0  0
 14 24  1  0  0  0  0
M  END
>  <Column 1>
COc1cc(C)nc(-n2cccn2)n1 ZINC000000009772

>  <Total Molweight>
190.205

>  <cLogP>
0.5818

>  <cLogS>
1.098

>  <H-Acceptors>
5

>  <H-Donors>
0

>  <Total Surface Area>
153.02

>  <MMFF94 Energy>
43.319

> <Gold.Version>
5.8.1

> <Gold.Id.Protein>
ID|2FQT|mol2

> <Gold.PLP.Fitness>
38.2482

> <Gold.PLP.PLP>
-39.2511

> <Gold.PLP.part.hbond>
-1.0000

> <Gold.PLP.part.metal>
0.0000

> <Gold.PLP.part.buried>
-4.1268

> <Gold.PLP.part.nonpolar>
-34.1888

> <Gold.PLP.part.repulsive>
0.2439

> <Gold.PLP.ligand.clash>
0.0000

> <Gold.PLP.ligand.torsion>
0.5015

> <Gold.PLP.Chemscore.Hbond>
0.0000

> <Gold.PLP.Chemscore.CHOScore>
0.0000

> <Gold.PLP.Chemscore.Metal>
0.0000

> <Gold.PLP.Chemscore.Internal.Correction>
0.0000

> <Gold.Protein.RotatedTorsions>
[ 1849  621  620  617 ] final   89.06 input   60.00 | X-H torsion

> <Gold.Protein.ActiveResidues>
 HIS54   GLU57   HIS58   ALA61   PHE62   ILE76   ILE77   ASP78   ILE79   SER80  
 PRO81   GLN125  CYS126  GLY127  GLN128  HIS132  CO701  

> <Gold.Protein.RotatedAtoms>
  -18.1416   28.4096  -12.9771 H   0  0  0  0  0  0  0  0  0  0  0  0  # atno 1849 bound_to 621 
  -19.6957   28.5073  -13.4497 LP  0  0  0  0  0  0  0  0  0  0  0  0  # atno 2431 bound_to 621 
  -18.7497   27.2912  -13.9907 LP  0  0  0  0  0  0  0  0  0  0  0  0  # atno 2432 bound_to 621 

$$$$
Compound 74|DecoysActives|sdf|81|dock1
  -GOLD-   6112412133D 1   1.00000     0.00000

 26 27  0  0  0  0  0  0  0  0  1 V2000
  -25.1672   30.8904  -17.7665 S   0  0  0  0  0  0  0  0  0  0  0  0
  -26.3838   30.1477  -17.4979 O   0  0  0  0  0  0  0  0  0  0  0  0
  -23.9016   30.4438  -17.2297 O   0  0  0  0  0  0  0  0  0  0  0  0
  -25.0610   31.0980  -19.4172 N   0  0  0  0  0  0  0  0  0  0  0  0
  -25.4282   32.5610  -17.2102 C   0  0  0  0  0  0  0  0  0  0  0  0
  -25.9914   30.6331  -20.3622 C   0  0  0  0  0  0  0  0  0  0  0  0
  -23.7787   31.4883  -20.0145 C   0  0  0  0  0  0  0  0  0  0  0  0
  -26.2432   33.4110  -17.9642 C   0  0  0  0  0  0  0  0  0  0  0  0
  -24.7943   33.0205  -16.0519 C   0  0  0  0  0  0  0  0  0  0  0  0
  -27.0704   30.1158  -20.1417 O   0  0  0  0  0  0  0  0  0  0  0  0
  -25.4027   30.8919  -21.7245 C   0  0  0  0  0  0  0  0  0  0  0  0
  -23.9032   30.9222  -21.4288 C   0  0  0  0  0  0  0  0  0  0  0  0
  -26.4460   34.7230  -17.5380 C   0  0  0  0  0  0  0  0  0  0  0  0
  -25.0019   34.3348  -15.6331 C   0  0  0  0  0  0  0  0  0  0  0  0
  -25.8288   35.1822  -16.3731 C   0  0  0  0  0  0  0  0  0  0  0  0
  -22.9120   31.0638  -19.5023 H   0  0  0  0  0  0  0  0  0  0  0  0
  -23.7015   32.5799  -20.0346 H   0  0  0  0  0  0  0  0  0  0  0  0
  -26.7158   33.0596  -18.8803 H   0  0  0  0  0  0  0  0  0  0  0  0
  -24.1369   32.3708  -15.4789 H   0  0  0  0  0  0  0  0  0  0  0  0
  -25.7618   31.8587  -22.0899 H   0  0  0  0  0  0  0  0  0  0  0  0
  -25.6655   30.0988  -22.4281 H   0  0  0  0  0  0  0  0  0  0  0  0
  -23.3412   31.5059  -22.1636 H   0  0  0  0  0  0  0  0  0  0  0  0
  -23.5104   29.8976  -21.4456 H   0  0  0  0  0  0  0  0  0  0  0  0
  -27.0786   35.3902  -18.1189 H   0  0  0  0  0  0  0  0  0  0  0  0
  -24.5122   34.7036  -14.7351 H   0  0  0  0  0  0  0  0  0  0  0  0
  -25.9839   36.2083  -16.0476 H   0  0  0  0  0  0  0  0  0  0  0  0
  1  2  2  0  0  0  0
  1  3  2  0  0  0  0
  1  4  1  0  0  0  0
  1  5  1  0  0  0  0
  4  6  1  0  0  0  0
  4  7  1  0  0  0  0
  5  8  2  0  0  0  0
  5  9  1  0  0  0  0
  6 10  2  0  0  0  0
  6 11  1  0  0  0  0
  7 12  1  0  0  0  0
  7 16  1  0  0  0  0
  7 17  1  0  0  0  0
  8 13  1  0  0  0  0
  8 18  1  0  0  0  0
  9 14  2  0  0  0  0
  9 19  1  0  0  0  0
 11 12  1  0  0  0  0
 11 20  1  0  0  0  0
 11 21  1  0  0  0  0
 12 22  1  0  0  0  0
 12 23  1  0  0  0  0
 13 15  2  0  0  0  0
 13 24  1  0  0  0  0
 14 15  1  0  0  0  0
 14 25  1  0  0  0  0
 15 26  1  0  0  0  0
M  END
>  <Column 1>
O=C1CCCN1S(=O)(=O)c1ccccc1 ZINC000000010405

>  <Total Molweight>
225.267

>  <cLogP>
0.9582

>  <cLogS>
-1.423

>  <H-Acceptors>
4

>  <H-Donors>
0

>  <Total Surface Area>
157.67

>  <MMFF94 Energy>
-62.745

> <Gold.Version>
5.8.1

> <Gold.Id.Protein>
ID|2FQT|mol2

> <Gold.PLP.Fitness>
44.1260

> <Gold.PLP.PLP>
-29.5876

> <Gold.PLP.part.hbond>
-1.0000

> <Gold.PLP.part.metal>
-2.0000

> <Gold.PLP.part.buried>
-2.2017

> <Gold.PLP.part.nonpolar>
-25.2544

> <Gold.PLP.part.repulsive>
0.4412

> <Gold.PLP.ligand.clash>
0.0000

> <Gold.PLP.ligand.torsion>
2.1337

> <Gold.PLP.Chemscore.Hbond>
1.0000

> <Gold.PLP.Chemscore.CHOScore>
0.0000

> <Gold.PLP.Chemscore.Metal>
1.9693

> <Gold.Chemscore.Hbonds>
donor molecule, donor type, donor heavy atom, donor atom, acceptor molecule, acceptor atom, score
      P1  H   966  2177       L1    10  1.00
      P1  M  1222  1222       L1     2  1.00
      P1  M  1222  1222       L1    10  0.97

> <Gold.PLP.Chemscore.Internal.Correction>
3.9897

> <Gold.Protein.RotatedTorsions>
[ 1849  621  620  617 ] final  -23.64 input   60.00 | X-H torsion

> <Gold.Protein.ActiveResidues>
 HIS54   GLU57   HIS58   ALA61   PHE62   ILE76   ILE77   ASP78   ILE79   SER80  
 PRO81   GLN125  CYS126  GLY127  GLN128  HIS132  CO701  

> <Gold.Protein.RotatedAtoms>
  -19.6391   28.5811  -13.3743 H   0  0  0  0  0  0  0  0  0  0  0  0  # atno 1849 bound_to 621 
  -18.8649   27.3044  -14.0213 LP  0  0  0  0  0  0  0  0  0  0  0  0  # atno 2431 bound_to 621 
  -18.0724   28.3213  -13.0192 LP  0  0  0  0  0  0  0  0  0  0  0  0  # atno 2432 bound_to 621 

$$$$
Compound 75|DecoysActives|sdf|82|dock6
  -GOLD-   6112412133D 1   1.00000     0.00000

 30 32  0  0  0  0  0  0  0  0  1 V2000
  -26.4678   35.4835  -18.1052 O   0  0  0  0  0  0  0  0  0  0  0  0
  -25.9227   34.3117  -17.6822 C   0  0  0  0  0  0  0  0  0  0  0  0
  -26.7170   36.1376  -16.8437 C   0  0  0  0  0  0  0  0  0  0  0  0
  -25.8333   34.2391  -16.3130 C   0  0  0  0  0  0  0  0  0  0  0  0
  -25.4918   33.2848  -18.4961 C   0  0  0  0  0  0  0  0  0  0  0  0
  -26.3125   35.3545  -15.7010 O   0  0  0  0  0  0  0  0  0  0  0  0
  -25.3043   33.1371  -15.6792 C   0  0  0  0  0  0  0  0  0  0  0  0
  -24.9555   32.1361  -17.8887 C   0  0  0  0  0  0  0  0  0  0  0  0
  -24.8579   32.0791  -16.4776 C   0  0  0  0  0  0  0  0  0  0  0  0
  -24.4513   30.9785  -18.7255 C   0  0  0  0  0  0  0  0  0  0  0  0
  -25.1370   29.6673  -18.4736 C   0  0  0  0  0  0  0  0  0  0  0  0
  -26.4556   29.4031  -18.7932 C   0  0  0  0  0  0  0  0  0  0  0  0
  -24.4697   28.6230  -17.8655 C   0  0  0  0  0  0  0  0  0  0  0  0
  -27.0525   28.2370  -18.5047 N   0  0  0  0  0  0  0  0  0  0  0  0
  -27.2728   30.3493  -19.3862 N   0  0  0  0  0  0  0  0  0  0  0  0
  -25.0284   27.4337  -17.5832 N   0  0  0  0  0  0  0  0  0  0  0  0
  -26.3117   27.2954  -17.9157 C   0  0  0  0  0  0  0  0  0  0  0  0
  -26.9101   26.1038  -17.6316 N   0  0  0  0  0  0  0  0  0  0  0  0
  -27.7899   36.3469  -16.7631 H   0  0  0  0  0  0  0  0  0  0  0  0
  -26.1712   37.0879  -16.8278 H   0  0  0  0  0  0  0  0  0  0  0  0
  -25.5757   33.3776  -19.5738 H   0  0  0  0  0  0  0  0  0  0  0  0
  -25.2334   33.0958  -14.5981 H   0  0  0  0  0  0  0  0  0  0  0  0
  -24.4299   31.2021  -15.9938 H   0  0  0  0  0  0  0  0  0  0  0  0
  -23.3733   30.8364  -18.5714 H   0  0  0  0  0  0  0  0  0  0  0  0
  -24.5514   31.2645  -19.7812 H   0  0  0  0  0  0  0  0  0  0  0  0
  -23.4279   28.7113  -17.5701 H   0  0  0  0  0  0  0  0  0  0  0  0
  -28.0015   30.7533  -18.8148 H   0  0  0  0  0  0  0  0  0  0  0  0
  -26.7462   30.9973  -19.9603 H   0  0  0  0  0  0  0  0  0  0  0  0
  -27.8768   25.9930  -17.8789 H   0  0  0  0  0  0  0  0  0  0  0  0
  -26.3528   25.3884  -17.2008 H   0  0  0  0  0  0  0  0  0  0  0  0
  1  2  1  0  0  0  0
  1  3  1  0  0  0  0
  2  4  2  0  0  0  0
  2  5  1  0  0  0  0
  3  6  1  0  0  0  0
  3 19  1  0  0  0  0
  3 20  1  0  0  0  0
  4  7  1  0  0  0  0
  4  6  1  0  0  0  0
  5  8  2  0  0  0  0
  5 21  1  0  0  0  0
  7  9  2  0  0  0  0
  7 22  1  0  0  0  0
  8 10  1  0  0  0  0
  8  9  1  0  0  0  0
  9 23  1  0  0  0  0
 10 11  1  0  0  0  0
 10 24  1  0  0  0  0
 10 25  1  0  0  0  0
 11 12  2  0  0  0  0
 11 13  1  0  0  0  0
 12 14  1  0  0  0  0
 12 15  1  0  0  0  0
 13 16  2  0  0  0  0
 13 26  1  0  0  0  0
 14 17  2  0  0  0  0
 15 27  1  0  0  0  0
 15 28  1  0  0  0  0
 16 17  1  0  0  0  0
 17 18  1  0  0  0  0
 18 29  1  0  0  0  0
 18 30  1  0  0  0  0
M  END
>  <Column 1>
Nc1ncc(Cc2ccc3c(c2)OCO3)c(N)n1 ZINC000000010465

>  <Total Molweight>
244.253

>  <cLogP>
1.39

>  <cLogS>
-3.982

>  <H-Acceptors>
6

>  <H-Donors>
2

>  <Total Surface Area>
181.6

>  <MMFF94 Energy>
-110.33

> <Gold.Version>
5.8.1

> <Gold.Id.Protein>
ID|2FQT|mol2

> <Gold.PLP.Fitness>
49.1835

> <Gold.PLP.PLP>
-33.6461

> <Gold.PLP.part.hbond>
-0.4748

> <Gold.PLP.part.metal>
-1.6599

> <Gold.PLP.part.buried>
-0.7833

> <Gold.PLP.part.nonpolar>
-31.9925

> <Gold.PLP.part.repulsive>
0.4597

> <Gold.PLP.ligand.clash>
0.0000

> <Gold.PLP.ligand.torsion>
0.0690

> <Gold.PLP.Chemscore.Hbond>
1.2244

> <Gold.PLP.Chemscore.CHOScore>
0.0000

> <Gold.PLP.Chemscore.Metal>
2.0000

> <Gold.Chemscore.Hbonds>
donor molecule, donor type, donor heavy atom, donor atom, acceptor molecule, acceptor atom, score
      L1  H    15    27       P1   437  0.71
      P1  H   966  2177       L1    15  0.51
      P1  M  1222  1222       L1    14  1.00
      P1  M  1222  1222       L1    15  1.00

> <Gold.PLP.Chemscore.Internal.Correction>
0.0021

> <Gold.Protein.RotatedTorsions>
[ 1849  621  620  617 ] final   80.05 input   60.00 | X-H torsion

> <Gold.Protein.ActiveResidues>
 HIS54   GLU57   HIS58   ALA61   PHE62   ILE76   ILE77   ASP78   ILE79   SER80  
 PRO81   GLN125  CYS126  GLY127  GLN128  HIS132  CO701  

> <Gold.Protein.RotatedAtoms>
  -18.2354   28.5145  -12.9346 H   0  0  0  0  0  0  0  0  0  0  0  0  # atno 1849 bound_to 621 
  -19.7409   28.4005  -13.5417 LP  0  0  0  0  0  0  0  0  0  0  0  0  # atno 2431 bound_to 621 
  -18.6100   27.2923  -13.9415 LP  0  0  0  0  0  0  0  0  0  0  0  0  # atno 2432 bound_to 621 

$$$$
Compound 76|DecoysActives|sdf|83|dock19
  -GOLD-   6112412133D 1   1.00000     0.00000

 32 33  0  0  0  0  0  0  0  0  1 V2000
  -27.1111   35.8748  -17.1971 O   0  0  0  0  0  0  0  0  0  0  0  0
  -26.3796   34.7154  -17.2344 C   0  0  0  0  0  0  0  0  0  0  0  0
  -27.1428   36.5712  -15.9571 C   0  0  0  0  0  0  0  0  0  0  0  0
  -26.3986   34.0458  -18.4629 C   0  0  0  0  0  0  0  0  0  0  0  0
  -25.6421   34.1704  -16.1815 C   0  0  0  0  0  0  0  0  0  0  0  0
  -27.1108   34.5564  -19.5144 O   0  0  0  0  0  0  0  0  0  0  0  0
  -25.7074   32.8576  -18.6551 C   0  0  0  0  0  0  0  0  0  0  0  0
  -24.9323   32.9667  -16.3563 C   0  0  0  0  0  0  0  0  0  0  0  0
  -24.9741   32.3173  -17.6008 C   0  0  0  0  0  0  0  0  0  0  0  0
  -24.1330   32.3723  -15.2169 C   0  0  0  0  0  0  0  0  0  0  0  0
  -22.6496   32.3907  -15.4408 C   0  0  0  0  0  0  0  0  0  0  0  0
  -21.7583   31.4923  -14.8859 C   0  0  0  0  0  0  0  0  0  0  0  0
  -22.0692   33.3703  -16.2231 C   0  0  0  0  0  0  0  0  0  0  0  0
  -20.4328   31.5757  -15.0756 N   0  0  0  0  0  0  0  0  0  0  0  0
  -22.1573   30.4696  -14.0458 N   0  0  0  0  0  0  0  0  0  0  0  0
  -20.7492   33.4691  -16.4554 N   0  0  0  0  0  0  0  0  0  0  0  0
  -19.9810   32.5596  -15.8573 C   0  0  0  0  0  0  0  0  0  0  0  0
  -18.6350   32.6415  -16.0594 N   0  0  0  0  0  0  0  0  0  0  0  0
  -27.5920   35.9563  -15.1702 H   0  0  0  0  0  0  0  0  0  0  0  0
  -27.7721   37.4568  -16.0876 H   0  0  0  0  0  0  0  0  0  0  0  0
  -26.1425   36.9126  -15.6714 H   0  0  0  0  0  0  0  0  0  0  0  0
  -25.6017   34.6624  -15.2156 H   0  0  0  0  0  0  0  0  0  0  0  0
  -27.2164   33.8074  -20.1322 H   0  0  0  0  0  0  0  0  0  0  0  0
  -25.7431   32.3553  -19.6172 H   0  0  0  0  0  0  0  0  0  0  0  0
  -24.4388   31.3816  -17.7537 H   0  0  0  0  0  0  0  0  0  0  0  0
  -24.4439   31.3327  -15.0446 H   0  0  0  0  0  0  0  0  0  0  0  0
  -24.4102   32.8922  -14.2923 H   0  0  0  0  0  0  0  0  0  0  0  0
  -22.6688   34.1397  -16.7018 H   0  0  0  0  0  0  0  0  0  0  0  0
  -22.6085   29.6609  -14.4442 H   0  0  0  0  0  0  0  0  0  0  0  0
  -21.4727   30.2890  -13.3200 H   0  0  0  0  0  0  0  0  0  0  0  0
  -18.0521   31.9583  -15.6103 H   0  0  0  0  0  0  0  0  0  0  0  0
  -18.2977   33.3310  -16.7064 H   0  0  0  0  0  0  0  0  0  0  0  0
  1  2  1  0  0  0  0
  1  3  1  0  0  0  0
  2  4  2  0  0  0  0
  2  5  1  0  0  0  0
  3 19  1  0  0  0  0
  3 20  1  0  0  0  0
  3 21  1  0  0  0  0
  4  6  1  0  0  0  0
  4  7  1  0  0  0  0
  5  8  2  0  0  0  0
  5 22  1  0  0  0  0
  6 23  1  0  0  0  0
  7  9  2  0  0  0  0
  7 24  1  0  0  0  0
  8 10  1  0  0  0  0
  8  9  1  0  0  0  0
  9 25  1  0  0  0  0
 10 11  1  0  0  0  0
 10 26  1  0  0  0  0
 10 27  1  0  0  0  0
 11 12  2  0  0  0  0
 11 13  1  0  0  0  0
 12 14  1  0  0  0  0
 12 15  1  0  0  0  0
 13 16  2  0  0  0  0
 13 28  1  0  0  0  0
 14 17  2  0  0  0  0
 15 29  1  0  0  0  0
 15 30  1  0  0  0  0
 16 17  1  0  0  0  0
 17 18  1  0  0  0  0
 18 31  1  0  0  0  0
 18 32  1  0  0  0  0
M  END
>  <Column 1>
COc1cc(Cc2cnc(N)nc2N)ccc1O ZINC000000010467

>  <Total Molweight>
246.269

>  <cLogP>
0.8629

>  <cLogS>
-2.993

>  <H-Acceptors>
6

>  <H-Donors>
3

>  <Total Surface Area>
189.95

>  <MMFF94 Energy>
-108.11

> <Gold.Version>
5.8.1

> <Gold.Id.Protein>
ID|2FQT|mol2

> <Gold.PLP.Fitness>
47.0611

> <Gold.PLP.PLP>
-36.8064

> <Gold.PLP.part.hbond>
-4.0000

> <Gold.PLP.part.metal>
0.0000

> <Gold.PLP.part.buried>
-2.0228

> <Gold.PLP.part.nonpolar>
-30.5643

> <Gold.PLP.part.repulsive>
0.2721

> <Gold.PLP.ligand.clash>
0.0000

> <Gold.PLP.ligand.torsion>
0.4289

> <Gold.PLP.Chemscore.Hbond>
3.7033

> <Gold.PLP.Chemscore.CHOScore>
0.0000

> <Gold.PLP.Chemscore.Metal>
0.0000

> <Gold.Chemscore.Hbonds>
donor molecule, donor type, donor heavy atom, donor atom, acceptor molecule, acceptor atom, score
      L1  H     6    23       P1   954  0.72
      L1  H    15    29       P1   427  0.98
      L1  H    15    30       P1   611  1.00
      L1  H    18    31       P1   606  1.00

> <Gold.PLP.Chemscore.Internal.Correction>
0.0025

> <Gold.Protein.RotatedTorsions>
[ 1849  621  620  617 ] final  -82.46 input   60.00 | X-H torsion

> <Gold.Protein.ActiveResidues>
 HIS54   GLU57   HIS58   ALA61   PHE62   ILE76   ILE77   ASP78   ILE79   SER80  
 PRO81   GLN125  CYS126  GLY127  GLN128  HIS132  CO701  

> <Gold.Protein.RotatedAtoms>
  -19.6526   27.8355  -13.9120 H   0  0  0  0  0  0  0  0  0  0  0  0  # atno 1849 bound_to 621 
  -18.0865   27.5431  -13.5804 LP  0  0  0  0  0  0  0  0  0  0  0  0  # atno 2431 bound_to 621 
  -18.8371   28.8334  -12.9185 LP  0  0  0  0  0  0  0  0  0  0  0  0  # atno 2432 bound_to 621 

$$$$
Compound 77|DecoysActives|sdf|84|dock8
  -GOLD-   6112412133D 1   1.00000     0.00000

 40 42  0  0  0  0  0  0  0  0  1 V2000
  -24.0278   34.6154  -17.2327 N   0  0  0  0  0  0  0  0  0  0  0  0
  -25.2630   34.1042  -17.3363 C   0  0  0  0  0  0  0  0  0  0  0  0
  -23.8817   35.8529  -16.7139 C   0  0  0  0  0  0  0  0  0  0  0  0
  -26.3509   34.7844  -16.9438 N   0  0  0  0  0  0  0  0  0  0  0  0
  -25.4217   32.8416  -17.8753 N   0  0  0  0  0  0  0  0  0  0  0  0
  -24.9545   36.6277  -16.3050 C   0  0  0  0  0  0  0  0  0  0  0  0
  -22.4684   36.3720  -16.6575 C   0  0  0  0  0  0  0  0  0  0  0  0
  -26.1948   36.0238  -16.4302 C   0  0  0  0  0  0  0  0  0  0  0  0
  -25.2986   31.7000  -16.9700 C   0  0  0  0  0  0  0  0  0  0  0  0
  -26.3394   32.6995  -19.0046 C   0  0  0  0  0  0  0  0  0  0  0  0
  -24.7694   37.9905  -15.7002 C   0  0  0  0  0  0  0  0  0  0  0  0
  -22.2997   37.5463  -15.6978 C   0  0  0  0  0  0  0  0  0  0  0  0
  -27.4586   36.7122  -16.0045 C   0  0  0  0  0  0  0  0  0  0  0  0
  -25.1530   30.3755  -17.7521 C   0  0  0  0  0  0  0  0  0  0  0  0
  -26.1550   31.3375  -19.7108 C   0  0  0  0  0  0  0  0  0  0  0  0
  -23.3835   38.5860  -15.9503 C   0  0  0  0  0  0  0  0  0  0  0  0
  -26.2008   30.1892  -18.7793 N   0  0  0  0  0  0  0  0  0  0  0  0
  -25.9967   28.9348  -19.4999 C   0  0  0  0  0  0  0  0  0  0  0  0
  -22.1840   36.6840  -17.6701 H   0  0  0  0  0  0  0  0  0  0  0  0
  -21.7900   35.5630  -16.3620 H   0  0  0  0  0  0  0  0  0  0  0  0
  -24.4166   31.7912  -16.3240 H   0  0  0  0  0  0  0  0  0  0  0  0
  -26.1848   31.6474  -16.3245 H   0  0  0  0  0  0  0  0  0  0  0  0
  -27.3740   32.7893  -18.6490 H   0  0  0  0  0  0  0  0  0  0  0  0
  -26.1738   33.4785  -19.7589 H   0  0  0  0  0  0  0  0  0  0  0  0
  -25.5164   38.6880  -16.0956 H   0  0  0  0  0  0  0  0  0  0  0  0
  -24.9313   37.9077  -14.6180 H   0  0  0  0  0  0  0  0  0  0  0  0
  -22.3599   37.1952  -14.6599 H   0  0  0  0  0  0  0  0  0  0  0  0
  -21.3079   37.9927  -15.8308 H   0  0  0  0  0  0  0  0  0  0  0  0
  -27.6333   37.6012  -16.6181 H   0  0  0  0  0  0  0  0  0  0  0  0
  -27.4025   37.0010  -14.9503 H   0  0  0  0  0  0  0  0  0  0  0  0
  -28.3218   36.0485  -16.1224 H   0  0  0  0  0  0  0  0  0  0  0  0
  -25.1940   29.5488  -17.0324 H   0  0  0  0  0  0  0  0  0  0  0  0
  -24.1587   30.3501  -18.2192 H   0  0  0  0  0  0  0  0  0  0  0  0
  -26.9479   31.2330  -20.4611 H   0  0  0  0  0  0  0  0  0  0  0  0
  -25.1974   31.3475  -20.2495 H   0  0  0  0  0  0  0  0  0  0  0  0
  -23.3139   38.9421  -16.9862 H   0  0  0  0  0  0  0  0  0  0  0  0
  -23.2336   39.4565  -15.3019 H   0  0  0  0  0  0  0  0  0  0  0  0
  -26.0527   28.0843  -18.8114 H   0  0  0  0  0  0  0  0  0  0  0  0
  -25.0285   28.8998  -20.0123 H   0  0  0  0  0  0  0  0  0  0  0  0
  -26.7862   28.7887  -20.2453 H   0  0  0  0  0  0  0  0  0  0  0  0
  1  2  2  0  0  0  0
  1  3  1  0  0  0  0
  2  4  1  0  0  0  0
  2  5  1  0  0  0  0
  3  6  2  0  0  0  0
  3  7  1  0  0  0  0
  4  8  2  0  0  0  0
  5  9  1  0  0  0  0
  5 10  1  0  0  0  0
  6 11  1  0  0  0  0
  6  8  1  0  0  0  0
  7 12  1  0  0  0  0
  7 19  1  0  0  0  0
  7 20  1  0  0  0  0
  8 13  1  0  0  0  0
  9 14  1  0  0  0  0
  9 21  1  0  0  0  0
  9 22  1  0  0  0  0
 10 15  1  0  0  0  0
 10 23  1  0  0  0  0
 10 24  1  0  0  0  0
 11 16  1  0  0  0  0
 11 25  1  0  0  0  0
 11 26  1  0  0  0  0
 12 16  1  0  0  0  0
 12 27  1  0  0  0  0
 12 28  1  0  0  0  0
 13 29  1  0  0  0  0
 13 30  1  0  0  0  0
 13 31  1  0  0  0  0
 14 17  1  0  0  0  0
 14 32  1  0  0  0  0
 14 33  1  0  0  0  0
 15 17  1  0  0  0  0
 15 34  1  0  0  0  0
 15 35  1  0  0  0  0
 16 36  1  0  0  0  0
 16 37  1  0  0  0  0
 17 18  1  0  0  0  0
 18 38  1  0  0  0  0
 18 39  1  0  0  0  0
 18 40  1  0  0  0  0
M  END
>  <Column 1>
Cc1nc(N2CCN(C)CC2)nc2c1CCCC2 ZINC000000010490

>  <Total Molweight>
246.357

>  <cLogP>
1.853

>  <cLogS>
-1.972

>  <H-Acceptors>
4

>  <H-Donors>
0

>  <Total Surface Area>
198.98

>  <MMFF94 Energy>
5.8798

> <Gold.Version>
5.8.1

> <Gold.Id.Protein>
ID|2FQT|mol2

> <Gold.PLP.Fitness>
47.4059

> <Gold.PLP.PLP>
-43.8427

> <Gold.PLP.part.hbond>
0.0000

> <Gold.PLP.part.metal>
-1.0000

> <Gold.PLP.part.buried>
-3.4263

> <Gold.PLP.part.nonpolar>
-39.7373

> <Gold.PLP.part.repulsive>
0.0843

> <Gold.PLP.ligand.clash>
0.0000

> <Gold.PLP.ligand.torsion>
1.2387

> <Gold.PLP.Chemscore.Hbond>
0.0000

> <Gold.PLP.Chemscore.CHOScore>
0.0000

> <Gold.PLP.Chemscore.Metal>
0.9693

> <Gold.Chemscore.Hbonds>
donor molecule, donor type, donor heavy atom, donor atom, acceptor molecule, acceptor atom, score
      P1  M  1222  1222       L1    17  0.97

> <Gold.PLP.Chemscore.Internal.Correction>
0.2245

> <Gold.Protein.RotatedTorsions>
[ 1849  621  620  617 ] final   19.41 input   60.00 | X-H torsion

> <Gold.Protein.ActiveResidues>
 HIS54   GLU57   HIS58   ALA61   PHE62   ILE76   ILE77   ASP78   ILE79   SER80  
 PRO81   GLN125  CYS126  GLY127  GLN128  HIS132  CO701  

> <Gold.Protein.RotatedAtoms>
  -19.1194   28.8413  -13.0079 H   0  0  0  0  0  0  0  0  0  0  0  0  # atno 1849 bound_to 621 
  -19.4831   27.6150  -14.0138 LP  0  0  0  0  0  0  0  0  0  0  0  0  # atno 2431 bound_to 621 
  -17.9776   27.7486  -13.3957 LP  0  0  0  0  0  0  0  0  0  0  0  0  # atno 2432 bound_to 621 

$$$$
Compound 78|DecoysActives|sdf|85|dock3
  -GOLD-   6112412133D 1   1.00000     0.00000

 20 21  0  0  0  0  0  0  0  0  1 V2000
  -25.0740   31.7590  -17.1731 N   0  0  0  0  0  0  0  0  0  0  0  0
  -24.8147   31.9296  -15.8607 C   0  0  0  0  0  0  0  0  0  0  0  0
  -25.5398   32.8358  -17.8364 C   0  0  0  0  0  0  0  0  0  0  0  0
  -25.0001   33.1261  -15.1842 C   0  0  0  0  0  0  0  0  0  0  0  0
  -25.7539   34.0720  -17.2462 C   0  0  0  0  0  0  0  0  0  0  0  0
  -25.4650   34.2369  -15.8895 C   0  0  0  0  0  0  0  0  0  0  0  0
  -25.7328   35.4702  -15.2801 N   0  0  0  0  0  0  0  0  0  0  0  0
  -26.1822   36.5922  -15.8792 N   0  0  0  0  0  0  0  0  0  0  0  0
  -25.2808   37.4711  -16.3274 N   0  0  0  0  0  0  0  0  0  0  0  0
  -27.4638   36.9065  -16.2247 C   0  0  0  0  0  0  0  0  0  0  0  0
  -26.0223   38.4107  -16.9205 C   0  0  0  0  0  0  0  0  0  0  0  0
  -27.3965   38.1090  -16.8881 C   0  0  0  0  0  0  0  0  0  0  0  0
  -24.4420   31.0494  -15.3444 H   0  0  0  0  0  0  0  0  0  0  0  0
  -25.7489   32.6759  -18.8902 H   0  0  0  0  0  0  0  0  0  0  0  0
  -24.7650   33.1753  -14.1272 H   0  0  0  0  0  0  0  0  0  0  0  0
  -26.1430   34.8891  -17.8433 H   0  0  0  0  0  0  0  0  0  0  0  0
  -25.9420   35.4672  -14.2924 H   0  0  0  0  0  0  0  0  0  0  0  0
  -28.2883   36.2596  -15.9649 H   0  0  0  0  0  0  0  0  0  0  0  0
  -25.5298   39.2693  -17.3595 H   0  0  0  0  0  0  0  0  0  0  0  0
  -28.2171   38.6784  -17.3005 H   0  0  0  0  0  0  0  0  0  0  0  0
  1  2  2  0  0  0  0
  1  3  1  0  0  0  0
  2  4  1  0  0  0  0
  2 13  1  0  0  0  0
  3  5  2  0  0  0  0
  3 14  1  0  0  0  0
  4  6  2  0  0  0  0
  4 15  1  0  0  0  0
  5  6  1  0  0  0  0
  5 16  1  0  0  0  0
  6  7  1  0  0  0  0
  7  8  1  0  0  0  0
  7 17  1  0  0  0  0
  8  9  1  0  0  0  0
  8 10  1  0  0  0  0
  9 11  2  0  0  0  0
 10 12  2  0  0  0  0
 10 18  1  0  0  0  0
 11 12  1  0  0  0  0
 11 19  1  0  0  0  0
 12 20  1  0  0  0  0
M  END
>  <Column 1>
c1cnn(Nc2ccncc2)c1 ZINC000000010545

>  <Total Molweight>
160.18

>  <cLogP>
0.8271

>  <cLogS>
-2.475

>  <H-Acceptors>
4

>  <H-Donors>
1

>  <Total Surface Area>
131.2

>  <MMFF94 Energy>
-33.624

> <Gold.Version>
5.8.1

> <Gold.Id.Protein>
ID|2FQT|mol2

> <Gold.PLP.Fitness>
39.7012

> <Gold.PLP.PLP>
-38.0052

> <Gold.PLP.part.hbond>
-1.0000

> <Gold.PLP.part.metal>
0.0000

> <Gold.PLP.part.buried>
-5.2546

> <Gold.PLP.part.nonpolar>
-33.6365

> <Gold.PLP.part.repulsive>
0.2035

> <Gold.PLP.ligand.clash>
0.0000

> <Gold.PLP.ligand.torsion>
0.7424

> <Gold.PLP.Chemscore.Hbond>
0.9913

> <Gold.PLP.Chemscore.CHOScore>
0.0000

> <Gold.PLP.Chemscore.Metal>
0.0000

> <Gold.Chemscore.Hbonds>
donor molecule, donor type, donor heavy atom, donor atom, acceptor molecule, acceptor atom, score
      L1  H     7    17       P1   431  0.99

> <Gold.PLP.Chemscore.Internal.Correction>
0.2070

> <Gold.Protein.RotatedTorsions>
[ 1849  621  620  617 ] final  166.87 input   60.00 | X-H torsion

> <Gold.Protein.ActiveResidues>
 HIS54   GLU57   HIS58   ALA61   PHE62   ILE76   ILE77   ASP78   ILE79   SER80  
 PRO81   GLN125  CYS126  GLY127  GLN128  HIS132  CO701  

> <Gold.Protein.RotatedAtoms>
  -18.1790   27.4596  -13.6693 H   0  0  0  0  0  0  0  0  0  0  0  0  # atno 1849 bound_to 621 
  -18.6904   28.7960  -12.8943 LP  0  0  0  0  0  0  0  0  0  0  0  0  # atno 2431 bound_to 621 
  -19.7173   27.9591  -13.8491 LP  0  0  0  0  0  0  0  0  0  0  0  0  # atno 2432 bound_to 621 

$$$$
Compound 79|DecoysActives|sdf|86|dock2
  -GOLD-   6112412133D 1   1.00000     0.00000

 31 32  0  0  0  0  0  0  0  0  2 V2000
  -25.2458   33.2900  -17.5275 N   0  0  0  0  0  0  0  0  0  0  0  0
  -24.6054   33.0778  -16.3692 C   0  0  0  0  0  0  0  0  0  0  0  0
  -26.1072   34.3317  -17.6129 C   0  0  0  0  0  0  0  0  0  0  0  0
  -24.7733   33.8582  -15.2958 N   0  0  0  0  0  0  0  0  0  0  0  0
  -23.7322   32.0028  -16.2803 N   0  0  0  0  0  0  0  0  0  0  0  0
  -26.3440   35.1845  -16.5500 C   0  0  0  0  0  0  0  0  0  0  0  0
  -26.7977   34.5102  -18.9340 C   0  0  0  0  0  0  0  0  0  0  0  0
  -25.6360   34.8883  -15.4061 C   0  0  0  0  0  0  0  0  0  0  0  0
  -24.0257   30.8494  -17.1305 C   0  0  0  0  0  0  0  0  0  0  0  0
  -23.0433   31.8246  -15.0023 C   0  0  0  0  0  0  0  0  0  0  0  0
  -27.2880   36.3394  -16.6095 C   0  0  0  0  0  0  0  0  0  0  0  0
  -22.8178   29.9036  -17.2268 C   0  0  0  0  0  0  0  0  0  0  0  0
  -21.8535   30.8606  -15.1379 C   0  0  0  0  0  0  0  0  0  0  0  0
  -22.2693   29.6026  -15.8558 N   0  3  0  0  0  0  0  0  0  0  0  0
  -26.5515   35.4854  -19.3650 H   0  0  0  0  0  0  0  0  0  0  0  0
  -27.8822   34.4284  -18.8123 H   0  0  0  0  0  0  0  0  0  0  0  0
  -26.4809   33.7396  -19.6448 H   0  0  0  0  0  0  0  0  0  0  0  0
  -25.7410   35.4883  -14.5055 H   0  0  0  0  0  0  0  0  0  0  0  0
  -24.8830   30.3030  -16.7176 H   0  0  0  0  0  0  0  0  0  0  0  0
  -24.2784   31.1475  -18.1553 H   0  0  0  0  0  0  0  0  0  0  0  0
  -23.7493   31.4284  -14.2615 H   0  0  0  0  0  0  0  0  0  0  0  0
  -22.6437   32.7696  -14.6150 H   0  0  0  0  0  0  0  0  0  0  0  0
  -27.3177   36.8820  -15.6585 H   0  0  0  0  0  0  0  0  0  0  0  0
  -28.3039   35.9922  -16.8230 H   0  0  0  0  0  0  0  0  0  0  0  0
  -26.9769   37.0482  -17.3835 H   0  0  0  0  0  0  0  0  0  0  0  0
  -21.9998   30.3526  -17.8005 H   0  0  0  0  0  0  0  0  0  0  0  0
  -23.0937   28.9461  -17.6781 H   0  0  0  0  0  0  0  0  0  0  0  0
  -21.4695   30.5582  -14.1593 H   0  0  0  0  0  0  0  0  0  0  0  0
  -21.0418   31.3034  -15.7252 H   0  0  0  0  0  0  0  0  0  0  0  0
  -22.9860   29.1160  -15.3021 H   0  0  0  0  0  0  0  0  0  0  0  0
  -21.4660   28.9674  -15.9357 H   0  0  0  0  0  0  0  0  0  0  0  0
  1  2  2  0  0  0  0
  1  3  1  0  0  0  0
  2  4  1  0  0  0  0
  2  5  1  0  0  0  0
  3  6  2  0  0  0  0
  3  7  1  0  0  0  0
  4  8  2  0  0  0  0
  5  9  1  0  0  0  0
  5 10  1  0  0  0  0
  6 11  1  0  0  0  0
  6  8  1  0  0  0  0
  7 15  1  0  0  0  0
  7 16  1  0  0  0  0
  7 17  1  0  0  0  0
  8 18  1  0  0  0  0
  9 12  1  0  0  0  0
  9 19  1  0  0  0  0
  9 20  1  0  0  0  0
 10 13  1  0  0  0  0
 10 21  1  0  0  0  0
 10 22  1  0  0  0  0
 11 23  1  0  0  0  0
 11 24  1  0  0  0  0
 11 25  1  0  0  0  0
 12 14  1  0  0  0  0
 12 26  1  0  0  0  0
 12 27  1  0  0  0  0
 13 14  1  0  0  0  0
 13 28  1  0  0  0  0
 13 29  1  0  0  0  0
 14 30  1  0  0  0  0
 14 31  1  0  0  0  0
M  CHG  1  14   1
M  END
>  <Column 1>
Cc1cnc(N2CC[NH2+]CC2)nc1C ZINC000000010718

>  <Total Molweight>
193.273

>  <cLogP>
0.4721

>  <cLogS>
-1.562

>  <H-Acceptors>
3

>  <H-Donors>
1

>  <Total Surface Area>
154.88

>  <MMFF94 Energy>
6.9065

> <Gold.Version>
5.8.1

> <Gold.Id.Protein>
ID|2FQT|mol2

> <Gold.PLP.Fitness>
39.9449

> <Gold.PLP.PLP>
-31.1212

> <Gold.PLP.part.hbond>
-1.0000

> <Gold.PLP.part.metal>
0.0000

> <Gold.PLP.part.buried>
-2.6880

> <Gold.PLP.part.nonpolar>
-28.0615

> <Gold.PLP.part.repulsive>
0.1107

> <Gold.PLP.ligand.clash>
0.0000

> <Gold.PLP.ligand.torsion>
0.1763

> <Gold.PLP.Chemscore.Hbond>
2.0000

> <Gold.PLP.Chemscore.CHOScore>
1.0000

> <Gold.PLP.Chemscore.Metal>
0.0000

> <Gold.Chemscore.Hbonds>
donor molecule, donor type, donor heavy atom, donor atom, acceptor molecule, acceptor atom, score
      L1  H    14    30       P1   427  2.00
      L1  C     8    18       P1   431  1.00

> <Gold.PLP.Chemscore.Internal.Correction>
0.1763

> <Gold.Protein.RotatedTorsions>
[ 1849  621  620  617 ] final   27.54 input   60.00 | X-H torsion

> <Gold.Protein.ActiveResidues>
 HIS54   GLU57   HIS58   ALA61   PHE62   ILE76   ILE77   ASP78   ILE79   SER80  
 PRO81   GLN125  CYS126  GLY127  GLN128  HIS132  CO701  

> <Gold.Protein.RotatedAtoms>
  -18.9947   28.8444  -12.9624 H   0  0  0  0  0  0  0  0  0  0  0  0  # atno 1849 bound_to 621 
  -19.5702   27.7094  -13.9766 LP  0  0  0  0  0  0  0  0  0  0  0  0  # atno 2431 bound_to 621 
  -18.0161   27.6512  -13.4787 LP  0  0  0  0  0  0  0  0  0  0  0  0  # atno 2432 bound_to 621 

$$$$
Compound 80|DecoysActives|sdf|87|dock1
  -GOLD-   6112412133D 1   1.00000     0.00000

 28 30  0  0  0  0  0  0  0  0  2 V2000
  -26.1845   30.1822  -17.6701 O   0  0  0  0  0  0  0  0  0  0  0  0
  -25.3040   31.1104  -17.0516 C   0  0  2  0  0  0  0  0  0  0  0  0
  -25.8501   32.5374  -17.2621 C   0  0  1  0  0  0  0  0  0  0  0  0
  -23.9520   31.1447  -17.8069 C   0  0  0  0  0  0  0  0  0  0  0  0
  -24.9523   33.5355  -16.4829 C   0  0  2  0  0  0  0  0  0  0  0  0
  -25.4357   32.7701  -18.7089 C   0  0  0  0  0  0  0  0  0  0  0  0
  -23.9612   32.5445  -18.4268 N   0  3  1  0  0  0  0  0  0  0  0  0
  -25.5884   34.8871  -16.3106 C   0  0  0  0  0  0  0  0  0  0  0  0
  -23.6805   33.6007  -17.3565 C   0  0  0  0  0  0  0  0  0  0  0  0
  -26.8555   35.0433  -16.7664 N   0  0  0  0  0  0  0  0  0  0  0  0
  -24.9036   35.9381  -15.7081 C   0  0  0  0  0  0  0  0  0  0  0  0
  -27.4010   36.2744  -16.5940 C   0  0  0  0  0  0  0  0  0  0  0  0
  -25.4476   37.1626  -15.5440 N   0  0  0  0  0  0  0  0  0  0  0  0
  -26.7114   37.3121  -15.9962 C   0  0  0  0  0  0  0  0  0  0  0  0
  -27.0868   30.5572  -17.6772 H   0  0  0  0  0  0  0  0  0  0  0  0
  -25.1764   30.8341  -16.0005 H   0  0  0  0  0  0  0  0  0  0  0  0
  -26.9244   32.6308  -17.0839 H   0  0  0  0  0  0  0  0  0  0  0  0
  -23.0796   31.0744  -17.1516 H   0  0  0  0  0  0  0  0  0  0  0  0
  -23.8896   30.4240  -18.6275 H   0  0  0  0  0  0  0  0  0  0  0  0
  -24.7044   33.1279  -15.4947 H   0  0  0  0  0  0  0  0  0  0  0  0
  -25.7743   32.0227  -19.4336 H   0  0  0  0  0  0  0  0  0  0  0  0
  -25.5669   33.7753  -19.1149 H   0  0  0  0  0  0  0  0  0  0  0  0
  -23.3654   32.6301  -19.2613 H   0  0  0  0  0  0  0  0  0  0  0  0
  -23.5238   34.5500  -17.8788 H   0  0  0  0  0  0  0  0  0  0  0  0
  -22.7690   33.3124  -16.8245 H   0  0  0  0  0  0  0  0  0  0  0  0
  -23.8901   35.8367  -15.3330 H   0  0  0  0  0  0  0  0  0  0  0  0
  -28.4163   36.4064  -16.9527 H   0  0  0  0  0  0  0  0  0  0  0  0
  -27.1549   38.2930  -15.8632 H   0  0  0  0  0  0  0  0  0  0  0  0
  1  2  1  0  0  0  0
  1 15  1  0  0  0  0
  2  3  1  0  0  0  0
  2  4  1  0  0  0  0
  2 16  1  0  0  0  0
  3  5  1  0  0  0  0
  3  6  1  0  0  0  0
  3 17  1  0  0  0  0
  4  7  1  0  0  0  0
  4 18  1  0  0  0  0
  4 19  1  0  0  0  0
  5  8  1  0  0  0  0
  5  9  1  0  0  0  0
  5 20  1  0  0  0  0
  6  7  1  0  0  0  0
  6 21  1  0  0  0  0
  6 22  1  0  0  0  0
  7  9  1  0  0  0  0
  7 23  1  0  0  0  0
  8 10  2  0  0  0  0
  8 11  1  0  0  0  0
  9 24  1  0  0  0  0
  9 25  1  0  0  0  0
 10 12  1  0  0  0  0
 11 13  2  0  0  0  0
 11 26  1  0  0  0  0
 12 14  2  0  0  0  0
 12 27  1  0  0  0  0
 13 14  1  0  0  0  0
 14 28  1  0  0  0  0
M  CHG  1   7   1
M  END
>  <Column 1>
O[C@H]1C[N@H+]2C[C@@H](c3cnccn3)[C@H]1C2 ZINC000000010753

>  <Total Molweight>
192.241

>  <cLogP>
-2.3775

>  <cLogS>
-0.037

>  <H-Acceptors>
3

>  <H-Donors>
2

>  <Total Surface Area>
153.25

>  <MMFF94 Energy>
98.919

> <Gold.Version>
5.8.1

> <Gold.Id.Protein>
ID|2FQT|mol2

> <Gold.PLP.Fitness>
39.1950

> <Gold.PLP.PLP>
-30.3878

> <Gold.PLP.part.hbond>
-0.9752

> <Gold.PLP.part.metal>
-1.0000

> <Gold.PLP.part.buried>
-4.9019

> <Gold.PLP.part.nonpolar>
-24.2134

> <Gold.PLP.part.repulsive>
0.1803

> <Gold.PLP.ligand.clash>
0.0000

> <Gold.PLP.ligand.torsion>
0.0152

> <Gold.PLP.Chemscore.Hbond>
1.0000

> <Gold.PLP.Chemscore.CHOScore>
0.0000

> <Gold.PLP.Chemscore.Metal>
0.9693

> <Gold.Chemscore.Hbonds>
donor molecule, donor type, donor heavy atom, donor atom, acceptor molecule, acceptor atom, score
      L1  H     1    15       P1   437  1.00
      P1  M  1222  1222       L1     1  0.97

> <Gold.PLP.Chemscore.Internal.Correction>
0.0216

> <Gold.Protein.RotatedTorsions>
[ 1849  621  620  617 ] final -173.46 input   60.00 | X-H torsion

> <Gold.Protein.ActiveResidues>
 HIS54   GLU57   HIS58   ALA61   PHE62   ILE76   ILE77   ASP78   ILE79   SER80  
 PRO81   GLN125  CYS126  GLY127  GLN128  HIS132  CO701  

> <Gold.Protein.RotatedAtoms>
  -18.4170   27.3336  -13.8419 H   0  0  0  0  0  0  0  0  0  0  0  0  # atno 1849 bound_to 621 
  -18.4003   28.6560  -12.8937 LP  0  0  0  0  0  0  0  0  0  0  0  0  # atno 2431 bound_to 621 
  -19.7677   28.2259  -13.6758 LP  0  0  0  0  0  0  0  0  0  0  0  0  # atno 2432 bound_to 621 

$$$$
Compound 81|DecoysActives|sdf|88|dock1
  -GOLD-   6112412133D 1   1.00000     0.00000

 25 27  0  0  0  0  0  0  0  0  1 V2000
  -26.8037   30.9006  -18.6977 O   0  0  0  0  0  0  0  0  0  0  0  0
  -26.8445   30.1035  -19.8406 N   0  0  0  0  0  0  0  0  0  0  0  0
  -25.5922   31.5304  -18.7151 C   0  0  0  0  0  0  0  0  0  0  0  0
  -25.6682   30.3408  -20.4229 C   0  0  0  0  0  0  0  0  0  0  0  0
  -24.8639   31.2188  -19.7639 N   0  0  0  0  0  0  0  0  0  0  0  0
  -25.2977   32.4555  -17.6101 C   0  0  1  0  0  0  0  0  0  0  0  0
  -25.2187   29.8149  -21.5573 N   0  0  0  0  0  0  0  0  0  0  0  0
  -23.9228   33.1017  -17.6314 C   0  0  0  0  0  0  0  0  0  0  0  0
  -26.1987   33.6967  -17.5636 C   0  0  0  0  0  0  0  0  0  0  0  0
  -25.2966   31.7995  -16.2249 C   0  0  0  0  0  0  0  0  0  0  0  0
  -24.1355   33.8812  -16.3796 N   0  0  1  0  0  0  0  0  0  0  0  0
  -25.3724   34.6482  -16.6973 C   0  0  0  0  0  0  0  0  0  0  0  0
  -24.4962   32.8134  -15.4046 C   0  0  0  0  0  0  0  0  0  0  0  0
  -25.7808   29.1596  -22.0808 H   0  0  0  0  0  0  0  0  0  0  0  0
  -24.3093   30.0548  -21.9250 H   0  0  0  0  0  0  0  0  0  0  0  0
  -23.7385   33.7479  -18.4989 H   0  0  0  0  0  0  0  0  0  0  0  0
  -23.0854   32.3987  -17.5403 H   0  0  0  0  0  0  0  0  0  0  0  0
  -27.1803   33.4859  -17.1250 H   0  0  0  0  0  0  0  0  0  0  0  0
  -26.3538   34.1275  -18.5605 H   0  0  0  0  0  0  0  0  0  0  0  0
  -26.3080   31.6542  -15.8296 H   0  0  0  0  0  0  0  0  0  0  0  0
  -24.7884   30.8275  -16.2309 H   0  0  0  0  0  0  0  0  0  0  0  0
  -25.9064   34.9707  -15.7967 H   0  0  0  0  0  0  0  0  0  0  0  0
  -25.1107   35.5510  -17.2618 H   0  0  0  0  0  0  0  0  0  0  0  0
  -25.0590   33.2023  -14.5490 H   0  0  0  0  0  0  0  0  0  0  0  0
  -23.5829   32.3517  -15.0112 H   0  0  0  0  0  0  0  0  0  0  0  0
  1  2  1  0  0  0  0
  1  3  1  0  0  0  0
  2  4  2  0  0  0  0
  3  5  2  0  0  0  0
  4  7  1  0  0  0  0
  4  5  1  0  0  0  0
  6  3  1  0  0  0  0
  6  8  1  0  0  0  0
  6  9  1  0  0  0  0
  6 10  1  0  0  0  0
  7 14  1  0  0  0  0
  7 15  1  0  0  0  0
  8 16  1  0  0  0  0
  8 17  1  0  0  0  0
  9 12  1  0  0  0  0
  9 18  1  0  0  0  0
  9 19  1  0  0  0  0
 10 13  1  0  0  0  0
 10 20  1  0  0  0  0
 10 21  1  0  0  0  0
 11  8  1  0  0  0  0
 11 12  1  0  0  0  0
 11 13  1  0  0  0  0
 12 22  1  0  0  0  0
 12 23  1  0  0  0  0
 13 24  1  0  0  0  0
 13 25  1  0  0  0  0
M  END
>  <Column 1>
Nc1noc(C23CCN(CC2)C3)n1 ZINC000000011110

>  <Total Molweight>
180.21

>  <cLogP>
-0.0969

>  <cLogS>
-1.236

>  <H-Acceptors>
5

>  <H-Donors>
1

>  <Total Surface Area>
131.5

>  <MMFF94 Energy>
-41.192

> <Gold.Version>
5.8.1

> <Gold.Id.Protein>
ID|2FQT|mol2

> <Gold.PLP.Fitness>
41.2415

> <Gold.PLP.PLP>
-26.3247

> <Gold.PLP.part.hbond>
-1.0000

> <Gold.PLP.part.metal>
-1.9911

> <Gold.PLP.part.buried>
-4.6825

> <Gold.PLP.part.nonpolar>
-19.0503

> <Gold.PLP.part.repulsive>
0.2334

> <Gold.PLP.ligand.clash>
0.0000

> <Gold.PLP.ligand.torsion>
0.0471

> <Gold.PLP.Chemscore.Hbond>
1.0000

> <Gold.PLP.Chemscore.CHOScore>
0.0000

> <Gold.PLP.Chemscore.Metal>
1.9951

> <Gold.Chemscore.Hbonds>
donor molecule, donor type, donor heavy atom, donor atom, acceptor molecule, acceptor atom, score
      P1  H   966  2177       L1     2  1.00
      P1  M  1222  1222       L1     1  1.00
      P1  M  1222  1222       L1     2  1.00

> <Gold.PLP.Chemscore.Internal.Correction>
0.0405

> <Gold.Protein.RotatedTorsions>
[ 1849  621  620  617 ] final  -69.25 input   60.00 | X-H torsion

> <Gold.Protein.ActiveResidues>
 HIS54   GLU57   HIS58   ALA61   PHE62   ILE76   ILE77   ASP78   ILE79   SER80  
 PRO81   GLN125  CYS126  GLY127  GLN128  HIS132  CO701  

> <Gold.Protein.RotatedAtoms>
  -19.7300   28.0108  -13.8136 H   0  0  0  0  0  0  0  0  0  0  0  0  # atno 1849 bound_to 621 
  -18.2153   27.4253  -13.7093 LP  0  0  0  0  0  0  0  0  0  0  0  0  # atno 2431 bound_to 621 
  -18.6304   28.7747  -12.8887 LP  0  0  0  0  0  0  0  0  0  0  0  0  # atno 2432 bound_to 621 

$$$$
Compound 82|DecoysActives|sdf|89|dock3
  -GOLD-   6112412133D 1   1.00000     0.00000

 31 32  0  0  0  0  0  0  0  0  1 V2000
  -24.6984   31.6565  -16.5960 O   0  0  0  0  0  0  0  0  0  0  0  0
  -25.3164   32.8063  -17.0225 C   0  0  0  0  0  0  0  0  0  0  0  0
  -23.7313   31.7686  -15.5608 C   0  0  0  0  0  0  0  0  0  0  0  0
  -25.9827   32.7444  -18.2653 C   0  0  0  0  0  0  0  0  0  0  0  0
  -25.3502   33.9915  -16.2708 C   0  0  0  0  0  0  0  0  0  0  0  0
  -25.9792   31.5429  -19.1168 C   0  0  0  0  0  0  0  0  0  0  0  0
  -26.6790   33.8927  -18.6989 C   0  0  0  0  0  0  0  0  0  0  0  0
  -26.0363   35.1220  -16.7260 C   0  0  0  0  0  0  0  0  0  0  0  0
  -26.1732   30.3711  -18.5077 N   0  0  0  0  0  0  0  0  0  0  0  0
  -25.8628   31.7061  -20.4339 N   0  0  0  0  0  0  0  0  0  0  0  0
  -26.7046   35.0690  -17.9433 C   0  0  0  0  0  0  0  0  0  0  0  0
  -25.9791   36.2008  -15.8861 O   0  0  0  0  0  0  0  0  0  0  0  0
  -26.1962   29.3263  -19.3162 C   0  0  0  0  0  0  0  0  0  0  0  0
  -25.9020   30.5892  -21.1365 C   0  0  0  0  0  0  0  0  0  0  0  0
  -27.0572   37.1262  -15.9527 C   0  0  0  0  0  0  0  0  0  0  0  0
  -26.0653   29.3764  -20.6319 N   0  0  0  0  0  0  0  0  0  0  0  0
  -26.3728   28.0973  -18.7470 N   0  0  0  0  0  0  0  0  0  0  0  0
  -25.7691   30.6965  -22.4917 N   0  0  0  0  0  0  0  0  0  0  0  0
  -22.9372   32.4729  -15.8310 H   0  0  0  0  0  0  0  0  0  0  0  0
  -23.2707   30.7851  -15.4265 H   0  0  0  0  0  0  0  0  0  0  0  0
  -24.2030   32.0459  -14.6126 H   0  0  0  0  0  0  0  0  0  0  0  0
  -24.8564   34.0641  -15.3070 H   0  0  0  0  0  0  0  0  0  0  0  0
  -27.2078   33.8713  -19.6515 H   0  0  0  0  0  0  0  0  0  0  0  0
  -27.2550   35.9167  -18.3369 H   0  0  0  0  0  0  0  0  0  0  0  0
  -27.1222   37.5859  -16.9446 H   0  0  0  0  0  0  0  0  0  0  0  0
  -26.8588   37.9229  -15.2292 H   0  0  0  0  0  0  0  0  0  0  0  0
  -28.0031   36.6508  -15.6735 H   0  0  0  0  0  0  0  0  0  0  0  0
  -26.4759   28.0475  -17.7488 H   0  0  0  0  0  0  0  0  0  0  0  0
  -26.3337   27.2899  -19.3438 H   0  0  0  0  0  0  0  0  0  0  0  0
  -25.6488   31.6112  -22.8883 H   0  0  0  0  0  0  0  0  0  0  0  0
  -25.8420   29.8550  -23.0368 H   0  0  0  0  0  0  0  0  0  0  0  0
  1  2  1  0  0  0  0
  1  3  1  0  0  0  0
  2  4  2  0  0  0  0
  2  5  1  0  0  0  0
  3 19  1  0  0  0  0
  3 20  1  0  0  0  0
  3 21  1  0  0  0  0
  4  6  1  0  0  0  0
  4  7  1  0  0  0  0
  5  8  2  0  0  0  0
  5 22  1  0  0  0  0
  6  9  2  0  0  0  0
  6 10  1  0  0  0  0
  7 11  2  0  0  0  0
  7 23  1  0  0  0  0
  8 12  1  0  0  0  0
  8 11  1  0  0  0  0
  9 13  1  0  0  0  0
 10 14  2  0  0  0  0
 11 24  1  0  0  0  0
 12 15  1  0  0  0  0
 13 16  2  0  0  0  0
 13 17  1  0  0  0  0
 14 18  1  0  0  0  0
 14 16  1  0  0  0  0
 15 25  1  0  0  0  0
 15 26  1  0  0  0  0
 15 27  1  0  0  0  0
 17 28  1  0  0  0  0
 17 29  1  0  0  0  0
 18 30  1  0  0  0  0
 18 31  1  0  0  0  0
M  END
>  <Column 1>
COc1ccc(-c2nc(N)nc(N)n2)c(OC)c1 ZINC000000011423

>  <Total Molweight>
247.257

>  <cLogP>
0.8601

>  <cLogS>
-3.864

>  <H-Acceptors>
7

>  <H-Donors>
2

>  <Total Surface Area>
190.86

>  <MMFF94 Energy>
-190.64

> <Gold.Version>
5.8.1

> <Gold.Id.Protein>
ID|2FQT|mol2

> <Gold.PLP.Fitness>
40.9802

> <Gold.PLP.PLP>
-36.5586

> <Gold.PLP.part.hbond>
-1.0000

> <Gold.PLP.part.metal>
-1.0000

> <Gold.PLP.part.buried>
-3.5832

> <Gold.PLP.part.nonpolar>
-33.7168

> <Gold.PLP.part.repulsive>
2.3133

> <Gold.PLP.ligand.clash>
0.0000

> <Gold.PLP.ligand.torsion>
1.2721

> <Gold.PLP.Chemscore.Hbond>
0.3422

> <Gold.PLP.Chemscore.CHOScore>
0.0000

> <Gold.PLP.Chemscore.Metal>
0.9693

> <Gold.Chemscore.Hbonds>
donor molecule, donor type, donor heavy atom, donor atom, acceptor molecule, acceptor atom, score
      P1  H   966  2177       L1    16  0.34
      P1  M  1222  1222       L1     9  0.97

> <Gold.PLP.Chemscore.Internal.Correction>
0.1231

> <Gold.Protein.RotatedTorsions>
[ 1849  621  620  617 ] final -151.61 input   60.00 | X-H torsion

> <Gold.Protein.ActiveResidues>
 HIS54   GLU57   HIS58   ALA61   PHE62   ILE76   ILE77   ASP78   ILE79   SER80  
 PRO81   GLN125  CYS126  GLY127  GLN128  HIS132  CO701  

> <Gold.Protein.RotatedAtoms>
  -18.7406   27.2947  -13.9821 H   0  0  0  0  0  0  0  0  0  0  0  0  # atno 1849 bound_to 621 
  -18.1424   28.4215  -12.9718 LP  0  0  0  0  0  0  0  0  0  0  0  0  # atno 2431 bound_to 621 
  -19.6998   28.4996  -13.4566 LP  0  0  0  0  0  0  0  0  0  0  0  0  # atno 2432 bound_to 621 

$$$$
Compound 83|DecoysActives|sdf|90|dock12
  -GOLD-   6112412133D 1   1.00000     0.00000

 27 28  0  0  0  0  0  0  0  0  1 V2000
  -26.1989   36.1790  -19.6971 O   0  0  0  0  0  0  0  0  0  0  0  0
  -26.5187   36.5019  -18.4013 C   0  0  0  0  0  0  0  0  0  0  0  0
  -26.4091   37.1669  -20.6963 C   0  0  0  0  0  0  0  0  0  0  0  0
  -26.4342   35.4617  -17.4480 C   0  0  0  0  0  0  0  0  0  0  0  0
  -26.8657   37.7988  -17.9923 C   0  0  0  0  0  0  0  0  0  0  0  0
  -26.0900   34.0756  -17.8069 C   0  0  0  0  0  0  0  0  0  0  0  0
  -26.6945   35.7769  -16.0961 C   0  0  0  0  0  0  0  0  0  0  0  0
  -27.1300   38.0776  -16.6501 C   0  0  0  0  0  0  0  0  0  0  0  0
  -25.5602   33.3164  -16.8453 N   0  0  0  0  0  0  0  0  0  0  0  0
  -26.3961   33.6488  -19.0314 N   0  0  0  0  0  0  0  0  0  0  0  0
  -27.0420   37.0684  -15.7003 C   0  0  0  0  0  0  0  0  0  0  0  0
  -25.2998   32.0721  -17.2048 C   0  0  0  0  0  0  0  0  0  0  0  0
  -26.0896   32.3875  -19.2714 C   0  0  0  0  0  0  0  0  0  0  0  0
  -25.5414   31.5565  -18.3991 N   0  0  0  0  0  0  0  0  0  0  0  0
  -24.7398   31.2529  -16.2663 N   0  0  0  0  0  0  0  0  0  0  0  0
  -26.3662   31.9019  -20.5177 N   0  0  0  0  0  0  0  0  0  0  0  0
  -27.4424   37.5292  -20.6893 H   0  0  0  0  0  0  0  0  0  0  0  0
  -26.2272   36.7012  -21.6696 H   0  0  0  0  0  0  0  0  0  0  0  0
  -25.6983   37.9922  -20.5859 H   0  0  0  0  0  0  0  0  0  0  0  0
  -26.9246   38.6220  -18.6966 H   0  0  0  0  0  0  0  0  0  0  0  0
  -26.6305   34.9954  -15.3397 H   0  0  0  0  0  0  0  0  0  0  0  0
  -27.3957   39.0873  -16.3473 H   0  0  0  0  0  0  0  0  0  0  0  0
  -27.2408   37.2817  -14.6534 H   0  0  0  0  0  0  0  0  0  0  0  0
  -24.5547   31.6339  -15.3551 H   0  0  0  0  0  0  0  0  0  0  0  0
  -24.4903   30.3195  -16.5412 H   0  0  0  0  0  0  0  0  0  0  0  0
  -26.7860   32.5207  -21.1880 H   0  0  0  0  0  0  0  0  0  0  0  0
  -26.1698   30.9326  -20.6959 H   0  0  0  0  0  0  0  0  0  0  0  0
  1  2  1  0  0  0  0
  1  3  1  0  0  0  0
  2  4  2  0  0  0  0
  2  5  1  0  0  0  0
  3 17  1  0  0  0  0
  3 18  1  0  0  0  0
  3 19  1  0  0  0  0
  4  6  1  0  0  0  0
  4  7  1  0  0  0  0
  5  8  2  0  0  0  0
  5 20  1  0  0  0  0
  6  9  2  0  0  0  0
  6 10  1  0  0  0  0
  7 11  2  0  0  0  0
  7 21  1  0  0  0  0
  8 11  1  0  0  0  0
  8 22  1  0  0  0  0
  9 12  1  0  0  0  0
 10 13  2  0  0  0  0
 11 23  1  0  0  0  0
 12 14  2  0  0  0  0
 12 15  1  0  0  0  0
 13 16  1  0  0  0  0
 13 14  1  0  0  0  0
 15 24  1  0  0  0  0
 15 25  1  0  0  0  0
 16 26  1  0  0  0  0
 16 27  1  0  0  0  0
M  END
>  <Column 1>
COc1ccccc1-c1nc(N)nc(N)n1 ZINC000000011428

>  <Total Molweight>
217.231

>  <cLogP>
0.9301

>  <cLogS>
-3.846

>  <H-Acceptors>
6

>  <H-Donors>
2

>  <Total Surface Area>
168.6

>  <MMFF94 Energy>
-192.61

> <Gold.Version>
5.8.1

> <Gold.Id.Protein>
ID|2FQT|mol2

> <Gold.PLP.Fitness>
38.3742

> <Gold.PLP.PLP>
-36.0259

> <Gold.PLP.part.hbond>
-1.3642

> <Gold.PLP.part.metal>
0.0000

> <Gold.PLP.part.buried>
-5.3856

> <Gold.PLP.part.nonpolar>
-30.0708

> <Gold.PLP.part.repulsive>
0.5569

> <Gold.PLP.ligand.clash>
0.0000

> <Gold.PLP.ligand.torsion>
0.3533

> <Gold.PLP.Chemscore.Hbond>
1.0000

> <Gold.PLP.Chemscore.CHOScore>
0.0000

> <Gold.PLP.Chemscore.Metal>
0.0000

> <Gold.Chemscore.Hbonds>
donor molecule, donor type, donor heavy atom, donor atom, acceptor molecule, acceptor atom, score
      L1  H    16    26       P1   954  1.00

> <Gold.PLP.Chemscore.Internal.Correction>
0.0550

> <Gold.Protein.RotatedTorsions>
[ 1849  621  620  617 ] final -165.66 input   60.00 | X-H torsion

> <Gold.Protein.ActiveResidues>
 HIS54   GLU57   HIS58   ALA61   PHE62   ILE76   ILE77   ASP78   ILE79   SER80  
 PRO81   GLN125  CYS126  GLY127  GLN128  HIS132  CO701  

> <Gold.Protein.RotatedAtoms>
  -18.5274   27.3070  -13.8993 H   0  0  0  0  0  0  0  0  0  0  0  0  # atno 1849 bound_to 621 
  -18.2985   28.5805  -12.9124 LP  0  0  0  0  0  0  0  0  0  0  0  0  # atno 2431 bound_to 621 
  -19.7583   28.3283  -13.5994 LP  0  0  0  0  0  0  0  0  0  0  0  0  # atno 2432 bound_to 621 

$$$$
Compound 84|DecoysActives|sdf|91|dock1
  -GOLD-   6112412133D 1   1.00000     0.00000

 31 32  0  0  0  0  0  0  0  0  1 V2000
  -26.3286   33.1192  -18.7111 O   0  0  0  0  0  0  0  0  0  0  0  0
  -25.5603   33.3866  -17.6041 C   0  0  0  0  0  0  0  0  0  0  0  0
  -25.9514   32.0213  -19.5290 C   0  0  0  0  0  0  0  0  0  0  0  0
  -25.9971   34.4505  -16.7934 C   0  0  0  0  0  0  0  0  0  0  0  0
  -24.4020   32.6766  -17.2536 C   0  0  0  0  0  0  0  0  0  0  0  0
  -27.1377   35.0957  -17.2020 O   0  0  0  0  0  0  0  0  0  0  0  0
  -25.2677   34.7819  -15.6508 C   0  0  0  0  0  0  0  0  0  0  0  0
  -23.6513   32.9961  -16.1033 C   0  0  0  0  0  0  0  0  0  0  0  0
  -27.4783   36.3096  -16.5484 C   0  0  0  0  0  0  0  0  0  0  0  0
  -24.1139   34.0638  -15.3145 C   0  0  0  0  0  0  0  0  0  0  0  0
  -22.4306   32.2411  -15.7420 C   0  0  0  0  0  0  0  0  0  0  0  0
  -21.2546   32.8499  -15.8984 N   0  0  0  0  0  0  0  0  0  0  0  0
  -22.5834   30.9987  -15.2826 N   0  0  0  0  0  0  0  0  0  0  0  0
  -20.2018   32.1262  -15.5594 C   0  0  0  0  0  0  0  0  0  0  0  0
  -21.4595   30.3742  -14.9765 C   0  0  0  0  0  0  0  0  0  0  0  0
  -20.2468   30.8886  -15.0950 N   0  0  0  0  0  0  0  0  0  0  0  0
  -18.9717   32.7019  -15.6999 N   0  0  0  0  0  0  0  0  0  0  0  0
  -21.5592   29.0981  -14.5010 N   0  0  0  0  0  0  0  0  0  0  0  0
  -24.9579   32.1745  -19.9630 H   0  0  0  0  0  0  0  0  0  0  0  0
  -26.6672   31.9579  -20.3545 H   0  0  0  0  0  0  0  0  0  0  0  0
  -26.0016   31.0788  -18.9738 H   0  0  0  0  0  0  0  0  0  0  0  0
  -24.0575   31.8538  -17.8736 H   0  0  0  0  0  0  0  0  0  0  0  0
  -25.5656   35.5936  -14.9957 H   0  0  0  0  0  0  0  0  0  0  0  0
  -27.6673   36.1452  -15.4824 H   0  0  0  0  0  0  0  0  0  0  0  0
  -28.4049   36.6819  -16.9959 H   0  0  0  0  0  0  0  0  0  0  0  0
  -26.7064   37.0711  -16.7017 H   0  0  0  0  0  0  0  0  0  0  0  0
  -23.5709   34.3517  -14.4149 H   0  0  0  0  0  0  0  0  0  0  0  0
  -18.9200   33.6416  -16.0515 H   0  0  0  0  0  0  0  0  0  0  0  0
  -18.1641   32.1606  -15.4453 H   0  0  0  0  0  0  0  0  0  0  0  0
  -22.4763   28.6979  -14.4072 H   0  0  0  0  0  0  0  0  0  0  0  0
  -20.7144   28.6090  -14.2634 H   0  0  0  0  0  0  0  0  0  0  0  0
  1  2  1  0  0  0  0
  1  3  1  0  0  0  0
  2  4  2  0  0  0  0
  2  5  1  0  0  0  0
  3 19  1  0  0  0  0
  3 20  1  0  0  0  0
  3 21  1  0  0  0  0
  4  6  1  0  0  0  0
  4  7  1  0  0  0  0
  5  8  2  0  0  0  0
  5 22  1  0  0  0  0
  6  9  1  0  0  0  0
  7 10  2  0  0  0  0
  7 23  1  0  0  0  0
  8 11  1  0  0  0  0
  8 10  1  0  0  0  0
  9 24  1  0  0  0  0
  9 25  1  0  0  0  0
  9 26  1  0  0  0  0
 10 27  1  0  0  0  0
 11 12  2  0  0  0  0
 11 13  1  0  0  0  0
 12 14  1  0  0  0  0
 13 15  2  0  0  0  0
 14 16  2  0  0  0  0
 14 17  1  0  0  0  0
 15 18  1  0  0  0  0
 15 16  1  0  0  0  0
 17 28  1  0  0  0  0
 17 29  1  0  0  0  0
 18 30  1  0  0  0  0
 18 31  1  0  0  0  0
M  END
>  <Column 1>
COc1ccc(-c2nc(N)nc(N)n2)cc1OC ZINC000000011431

>  <Total Molweight>
247.257

>  <cLogP>
0.8601

>  <cLogS>
-3.864

>  <H-Acceptors>
7

>  <H-Donors>
2

>  <Total Surface Area>
190.86

>  <MMFF94 Energy>
-187.65

> <Gold.Version>
5.8.1

> <Gold.Id.Protein>
ID|2FQT|mol2

> <Gold.PLP.Fitness>
36.7459

> <Gold.PLP.PLP>
-31.2358

> <Gold.PLP.part.hbond>
-4.3839

> <Gold.PLP.part.metal>
0.0000

> <Gold.PLP.part.buried>
-5.2734

> <Gold.PLP.part.nonpolar>
-24.3558

> <Gold.PLP.part.repulsive>
0.9042

> <Gold.PLP.ligand.clash>
0.0000

> <Gold.PLP.ligand.torsion>
1.4668

> <Gold.PLP.Chemscore.Hbond>
2.8125

> <Gold.PLP.Chemscore.CHOScore>
0.0000

> <Gold.PLP.Chemscore.Metal>
0.0000

> <Gold.Chemscore.Hbonds>
donor molecule, donor type, donor heavy atom, donor atom, acceptor molecule, acceptor atom, score
      L1  H    17    29       P1   606  1.00
      L1  H    18    30       P1   427  1.00
      L1  H    18    31       P1   621  0.81

> <Gold.PLP.Chemscore.Internal.Correction>
0.0062

> <Gold.Protein.RotatedTorsions>
[ 1849  621  620  617 ] final  125.83 input   60.00 | X-H torsion

> <Gold.Protein.ActiveResidues>
 HIS54   GLU57   HIS58   ALA61   PHE62   ILE76   ILE77   ASP78   ILE79   SER80  
 PRO81   GLN125  CYS126  GLY127  GLN128  HIS132  CO701  

> <Gold.Protein.RotatedAtoms>
  -17.9601   27.9246  -13.2608 H   0  0  0  0  0  0  0  0  0  0  0  0  # atno 1849 bound_to 621 
  -19.3175   28.8082  -13.1033 LP  0  0  0  0  0  0  0  0  0  0  0  0  # atno 2431 bound_to 621 
  -19.3107   27.4787  -14.0514 LP  0  0  0  0  0  0  0  0  0  0  0  0  # atno 2432 bound_to 621 

$$$$
Compound 85|DecoysActives|sdf|92|dock3
  -GOLD-   6112412133D 1   1.00000     0.00000

 28 30  0  0  0  0  0  0  0  0  1 V2000
  -26.7503   30.2367  -18.5367 O   0  0  0  0  0  0  0  0  0  0  0  0
  -26.9119   29.9741  -19.8970 N   0  0  0  0  0  0  0  0  0  0  0  0
  -25.5990   30.9597  -18.4261 C   0  0  0  0  0  0  0  0  0  0  0  0
  -25.8530   30.5669  -20.4518 C   0  0  0  0  0  0  0  0  0  0  0  0
  -25.0152   31.1908  -19.5790 N   0  0  0  0  0  0  0  0  0  0  0  0
  -25.1920   31.3681  -17.0609 C   0  0  0  0  0  0  0  0  0  0  0  0
  -25.5462   30.6039  -21.7440 N   0  0  0  0  0  0  0  0  0  0  0  0
  -25.0235   32.8723  -16.8944 C   0  0  2  0  0  0  0  0  0  0  0  0
  -25.0069   33.4183  -15.4729 C   0  0  0  0  0  0  0  0  0  0  0  0
  -26.2009   33.6682  -17.4919 C   0  0  0  0  0  0  0  0  0  0  0  0
  -23.7214   33.4708  -17.4561 C   0  0  0  0  0  0  0  0  0  0  0  0
  -24.8892   34.8412  -15.8925 N   0  0  2  0  0  0  0  0  0  0  0  0
  -26.0660   35.0158  -16.7836 C   0  0  0  0  0  0  0  0  0  0  0  0
  -23.6678   34.8242  -16.7435 C   0  0  0  0  0  0  0  0  0  0  0  0
  -25.9406   31.0031  -16.3469 H   0  0  0  0  0  0  0  0  0  0  0  0
  -24.2537   30.8577  -16.8090 H   0  0  0  0  0  0  0  0  0  0  0  0
  -26.1377   30.1544  -22.4277 H   0  0  0  0  0  0  0  0  0  0  0  0
  -24.7193   31.0795  -22.0751 H   0  0  0  0  0  0  0  0  0  0  0  0
  -24.1483   33.1004  -14.8699 H   0  0  0  0  0  0  0  0  0  0  0  0
  -25.9266   33.2278  -14.9070 H   0  0  0  0  0  0  0  0  0  0  0  0
  -27.1653   33.2080  -17.2465 H   0  0  0  0  0  0  0  0  0  0  0  0
  -26.1287   33.7642  -18.5804 H   0  0  0  0  0  0  0  0  0  0  0  0
  -22.8396   32.8785  -17.1908 H   0  0  0  0  0  0  0  0  0  0  0  0
  -23.7507   33.5797  -18.5453 H   0  0  0  0  0  0  0  0  0  0  0  0
  -25.9439   35.8508  -17.4824 H   0  0  0  0  0  0  0  0  0  0  0  0
  -26.9579   35.2236  -16.1808 H   0  0  0  0  0  0  0  0  0  0  0  0
  -23.6307   35.6681  -17.4413 H   0  0  0  0  0  0  0  0  0  0  0  0
  -22.7766   34.8877  -16.1080 H   0  0  0  0  0  0  0  0  0  0  0  0
  1  2  1  0  0  0  0
  1  3  1  0  0  0  0
  2  4  2  0  0  0  0
  3  5  2  0  0  0  0
  3  6  1  0  0  0  0
  4  7  1  0  0  0  0
  4  5  1  0  0  0  0
  6 15  1  0  0  0  0
  6 16  1  0  0  0  0
  7 17  1  0  0  0  0
  7 18  1  0  0  0  0
  8  6  1  0  0  0  0
  8  9  1  0  0  0  0
  8 10  1  0  0  0  0
  8 11  1  0  0  0  0
  9 19  1  0  0  0  0
  9 20  1  0  0  0  0
 10 13  1  0  0  0  0
 10 21  1  0  0  0  0
 10 22  1  0  0  0  0
 11 14  1  0  0  0  0
 11 23  1  0  0  0  0
 11 24  1  0  0  0  0
 12  9  1  0  0  0  0
 12 13  1  0  0  0  0
 12 14  1  0  0  0  0
 13 25  1  0  0  0  0
 13 26  1  0  0  0  0
 14 27  1  0  0  0  0
 14 28  1  0  0  0  0
M  END
>  <Column 1>
Nc1noc(CC23CCN(CC2)C3)n1 ZINC000000011896

>  <Total Molweight>
194.237

>  <cLogP>
0.4294

>  <cLogS>
-1.186

>  <H-Acceptors>
5

>  <H-Donors>
1

>  <Total Surface Area>
145.26

>  <MMFF94 Energy>
-39.926

> <Gold.Version>
5.8.1

> <Gold.Id.Protein>
ID|2FQT|mol2

> <Gold.PLP.Fitness>
43.3764

> <Gold.PLP.PLP>
-28.8026

> <Gold.PLP.part.hbond>
-1.0000

> <Gold.PLP.part.metal>
-1.7468

> <Gold.PLP.part.buried>
-4.5068

> <Gold.PLP.part.nonpolar>
-21.6161

> <Gold.PLP.part.repulsive>
0.3200

> <Gold.PLP.ligand.clash>
0.0000

> <Gold.PLP.ligand.torsion>
0.2018

> <Gold.PLP.Chemscore.Hbond>
1.0000

> <Gold.PLP.Chemscore.CHOScore>
0.0000

> <Gold.PLP.Chemscore.Metal>
1.9951

> <Gold.Chemscore.Hbonds>
donor molecule, donor type, donor heavy atom, donor atom, acceptor molecule, acceptor atom, score
      P1  H   966  2177       L1     2  1.00
      P1  M  1222  1222       L1     1  1.00
      P1  M  1222  1222       L1     2  1.00

> <Gold.PLP.Chemscore.Internal.Correction>
0.0069

> <Gold.Protein.RotatedTorsions>
[ 1849  621  620  617 ] final  -19.59 input   60.00 | X-H torsion

> <Gold.Protein.ActiveResidues>
 HIS54   GLU57   HIS58   ALA61   PHE62   ILE76   ILE77   ASP78   ILE79   SER80  
 PRO81   GLN125  CYS126  GLY127  GLN128  HIS132  CO701  

> <Gold.Protein.RotatedAtoms>
  -19.6051   28.6210  -13.3339 H   0  0  0  0  0  0  0  0  0  0  0  0  # atno 1849 bound_to 621 
  -18.9290   27.3171  -14.0345 LP  0  0  0  0  0  0  0  0  0  0  0  0  # atno 2431 bound_to 621 
  -18.0426   28.2684  -13.0466 LP  0  0  0  0  0  0  0  0  0  0  0  0  # atno 2432 bound_to 621 

$$$$
Compound 86|DecoysActives|sdf|93|dock13
  -GOLD-   6112412133D 1   1.00000     0.00000

 29 30  0  0  0  0  0  0  0  0  3 V2000
  -27.0992   28.9208  -19.7850 O   0  0  0  0  0  0  0  0  0  0  0  0
  -26.4875   29.6981  -19.0414 N   0  3  0  0  0  0  0  0  0  0  0  0
  -26.3606   29.5574  -17.8167 O   0  5  0  0  0  0  0  0  0  0  0  0
  -25.8617   30.8443  -19.6504 C   0  0  0  0  0  0  0  0  0  0  0  0
  -25.6166   30.9196  -20.9463 N   0  0  0  0  0  0  0  0  0  0  0  0
  -25.4428   31.9694  -18.9860 N   0  0  0  0  0  0  0  0  0  0  0  0
  -25.0310   32.1430  -21.1314 C   0  0  0  0  0  0  0  0  0  0  0  0
  -24.9096   32.8114  -19.9358 C   0  0  0  0  0  0  0  0  0  0  0  0
  -25.4697   32.2778  -17.5664 C   0  0  0  0  0  0  0  0  0  0  0  0
  -24.9419   33.6794  -17.2694 C   0  0  0  0  0  0  0  0  0  0  0  0
  -25.4530   34.2262  -15.9362 C   0  0  0  0  0  0  0  0  0  0  0  0
  -25.9072   35.5999  -16.0168 N   0  0  0  0  0  0  0  0  0  0  0  0
  -25.0719   36.6810  -16.1656 C   0  0  0  0  0  0  0  0  0  0  0  0
  -27.2719   35.9999  -16.1547 C   0  0  0  0  0  0  0  0  0  0  0  0
  -23.8537   36.6496  -16.2132 O   0  0  0  0  0  0  0  0  0  0  0  0
  -25.8133   37.8248  -16.2671 O   0  0  0  0  0  0  0  0  0  0  0  0
  -27.1821   37.4992  -15.9974 C   0  0  0  0  0  0  0  0  0  0  0  0
  -24.7250   32.4780  -22.1151 H   0  0  0  0  0  0  0  0  0  0  0  0
  -24.5011   33.7828  -19.6908 H   0  0  0  0  0  0  0  0  0  0  0  0
  -26.4811   32.1084  -17.1922 H   0  0  0  0  0  0  0  0  0  0  0  0
  -24.8383   31.5319  -17.0665 H   0  0  0  0  0  0  0  0  0  0  0  0
  -25.1802   34.3692  -18.0879 H   0  0  0  0  0  0  0  0  0  0  0  0
  -23.8462   33.6254  -17.2223 H   0  0  0  0  0  0  0  0  0  0  0  0
  -24.6185   34.2093  -15.2247 H   0  0  0  0  0  0  0  0  0  0  0  0
  -26.2545   33.6098  -15.5157 H   0  0  0  0  0  0  0  0  0  0  0  0
  -27.9072   35.5313  -15.3987 H   0  0  0  0  0  0  0  0  0  0  0  0
  -27.6251   35.7316  -17.1529 H   0  0  0  0  0  0  0  0  0  0  0  0
  -27.4154   37.8196  -14.9765 H   0  0  0  0  0  0  0  0  0  0  0  0
  -27.8387   38.0290  -16.6936 H   0  0  0  0  0  0  0  0  0  0  0  0
  1  2  2  0  0  0  0
  2  3  1  0  0  0  0
  2  4  1  0  0  0  0
  4  5  2  0  0  0  0
  4  6  1  0  0  0  0
  5  7  1  0  0  0  0
  6  8  1  0  0  0  0
  6  9  1  0  0  0  0
  7  8  2  0  0  0  0
  7 18  1  0  0  0  0
  8 19  1  0  0  0  0
  9 10  1  0  0  0  0
  9 20  1  0  0  0  0
  9 21  1  0  0  0  0
 10 11  1  0  0  0  0
 10 22  1  0  0  0  0
 10 23  1  0  0  0  0
 11 12  1  0  0  0  0
 11 24  1  0  0  0  0
 11 25  1  0  0  0  0
 12 13  1  0  0  0  0
 12 14  1  0  0  0  0
 13 15  2  0  0  0  0
 13 16  1  0  0  0  0
 14 17  1  0  0  0  0
 14 26  1  0  0  0  0
 14 27  1  0  0  0  0
 16 17  1  0  0  0  0
 17 28  1  0  0  0  0
 17 29  1  0  0  0  0
M  CHG  1   2   1
M  CHG  1   3  -1
M  END
>  <Column 1>
O=C1OCCN1CCCn1ccnc1[N+](=O)[O-] ZINC000000012332

>  <Total Molweight>
240.218

>  <cLogP>
-0.6131

>  <cLogS>
-0.966

>  <H-Acceptors>
7

>  <H-Donors>
0

>  <Total Surface Area>
178.24

>  <MMFF94 Energy>
21.781

> <Gold.Version>
5.8.1

> <Gold.Id.Protein>
ID|2FQT|mol2

> <Gold.PLP.Fitness>
51.0143

> <Gold.PLP.PLP>
-37.5505

> <Gold.PLP.part.hbond>
-1.0000

> <Gold.PLP.part.metal>
-2.0000

> <Gold.PLP.part.buried>
0.3950

> <Gold.PLP.part.nonpolar>
-35.7706

> <Gold.PLP.part.repulsive>
0.2693

> <Gold.PLP.ligand.clash>
0.0000

> <Gold.PLP.ligand.torsion>
0.8084

> <Gold.PLP.Chemscore.Hbond>
1.0000

> <Gold.PLP.Chemscore.CHOScore>
0.0000

> <Gold.PLP.Chemscore.Metal>
1.9951

> <Gold.Chemscore.Hbonds>
donor molecule, donor type, donor heavy atom, donor atom, acceptor molecule, acceptor atom, score
      P1  H   966  2177       L1     1  1.00
      P1  M  1222  1222       L1     1  1.00
      P1  M  1222  1222       L1     3  1.00

> <Gold.PLP.Chemscore.Internal.Correction>
0.1100

> <Gold.Protein.RotatedTorsions>
[ 1849  621  620  617 ] final -128.63 input   60.00 | X-H torsion

> <Gold.Protein.ActiveResidues>
 HIS54   GLU57   HIS58   ALA61   PHE62   ILE76   ILE77   ASP78   ILE79   SER80  
 PRO81   GLN125  CYS126  GLY127  GLN128  HIS132  CO701  

> <Gold.Protein.RotatedAtoms>
  -19.0988   27.3737  -14.0500 H   0  0  0  0  0  0  0  0  0  0  0  0  # atno 1849 bound_to 621 
  -17.9828   28.1210  -13.1312 LP  0  0  0  0  0  0  0  0  0  0  0  0  # atno 2431 bound_to 621 
  -19.4986   28.7206  -13.2288 LP  0  0  0  0  0  0  0  0  0  0  0  0  # atno 2432 bound_to 621 

$$$$
Compound 87|DecoysActives|sdf|94|dock2
  -GOLD-   6112412133D 1   1.00000     0.00000

 27 29  0  0  0  0  0  0  0  0  1 V2000
  -27.2567   36.9954  -15.8166 Cl  0  0  0  0  0  0  0  0  0  0  0  0
  -26.6595   35.6836  -16.7574 C   0  0  0  0  0  0  0  0  0  0  0  0
  -25.9900   34.6371  -16.1304 C   0  0  0  0  0  0  0  0  0  0  0  0
  -26.8556   35.6888  -18.1506 C   0  0  0  0  0  0  0  0  0  0  0  0
  -25.5319   33.6137  -16.9384 C   0  0  0  0  0  0  0  0  0  0  0  0
  -26.3822   34.6380  -18.9466 C   0  0  0  0  0  0  0  0  0  0  0  0
  -24.8009   32.4067  -16.5444 C   0  0  0  0  0  0  0  0  0  0  0  0
  -25.7143   33.5934  -18.3233 C   0  0  0  0  0  0  0  0  0  0  0  0
  -24.5040   32.1251  -15.4006 O   0  0  0  0  0  0  0  0  0  0  0  0
  -24.5349   31.7010  -17.7049 N   0  0  0  0  0  0  0  0  0  0  0  0
  -25.1024   32.3356  -18.9008 C   0  0  1  0  0  0  0  0  0  0  0  0
  -23.9462   30.3777  -17.7012 C   0  0  0  0  0  0  0  0  0  0  0  0
  -26.1636   31.4777  -19.5963 C   0  0  0  0  0  0  0  0  0  0  0  0
  -24.0813   32.6274  -20.0024 C   0  0  0  0  0  0  0  0  0  0  0  0
  -27.1009   30.8903  -19.0802 O   0  0  0  0  0  0  0  0  0  0  0  0
  -25.9073   31.4941  -20.9311 N   0  0  0  0  0  0  0  0  0  0  0  0
  -24.7785   32.1709  -21.2517 C   0  0  0  0  0  0  0  0  0  0  0  0
  -24.3767   32.3575  -22.3880 O   0  0  0  0  0  0  0  0  0  0  0  0
  -25.8297   34.6138  -15.0578 H   0  0  0  0  0  0  0  0  0  0  0  0
  -27.3844   36.5178  -18.6178 H   0  0  0  0  0  0  0  0  0  0  0  0
  -26.5474   34.6570  -20.0201 H   0  0  0  0  0  0  0  0  0  0  0  0
  -24.7087   29.6466  -17.9827 H   0  0  0  0  0  0  0  0  0  0  0  0
  -23.5708   30.1282  -16.7051 H   0  0  0  0  0  0  0  0  0  0  0  0
  -23.1200   30.3412  -18.4143 H   0  0  0  0  0  0  0  0  0  0  0  0
  -23.8211   33.6869  -20.0911 H   0  0  0  0  0  0  0  0  0  0  0  0
  -23.1603   32.0458  -19.8993 H   0  0  0  0  0  0  0  0  0  0  0  0
  -26.4993   31.0456  -21.6134 H   0  0  0  0  0  0  0  0  0  0  0  0
  1  2  1  0  0  0  0
  2  3  2  0  0  0  0
  2  4  1  0  0  0  0
  3  5  1  0  0  0  0
  3 19  1  0  0  0  0
  4  6  2  0  0  0  0
  4 20  1  0  0  0  0
  5  7  1  0  0  0  0
  5  8  2  0  0  0  0
  6  8  1  0  0  0  0
  6 21  1  0  0  0  0
  7  9  2  0  0  0  0
  7 10  1  0  0  0  0
 10 12  1  0  0  0  0
 10 11  1  0  0  0  0
 11  8  1  0  0  0  0
 11 13  1  0  0  0  0
 11 14  1  0  0  0  0
 12 22  1  0  0  0  0
 12 23  1  0  0  0  0
 12 24  1  0  0  0  0
 13 15  2  0  0  0  0
 13 16  1  0  0  0  0
 14 17  1  0  0  0  0
 14 25  1  0  0  0  0
 14 26  1  0  0  0  0
 16 17  1  0  0  0  0
 16 27  1  0  0  0  0
 17 18  2  0  0  0  0
M  END
>  <Column 1>
CN1C(=O)c2cc(Cl)ccc2[C@@]12CC(=O)NC2=O ZINC000000012729

>  <Total Molweight>
264.667

>  <cLogP>
0.607

>  <cLogS>
-2.282

>  <H-Acceptors>
5

>  <H-Donors>
1

>  <Total Surface Area>
173.12

>  <MMFF94 Energy>
-8.6653

> <Gold.Version>
5.8.1

> <Gold.Id.Protein>
ID|2FQT|mol2

> <Gold.PLP.Fitness>
44.0042

> <Gold.PLP.PLP>
-38.0042

> <Gold.PLP.part.hbond>
-1.0000

> <Gold.PLP.part.metal>
-0.8510

> <Gold.PLP.part.buried>
-5.7356

> <Gold.PLP.part.nonpolar>
-31.9623

> <Gold.PLP.part.repulsive>
0.4329

> <Gold.PLP.ligand.clash>
0.0000

> <Gold.PLP.ligand.torsion>
0.0000

> <Gold.PLP.Chemscore.Hbond>
0.0000

> <Gold.PLP.Chemscore.CHOScore>
0.0000

> <Gold.PLP.Chemscore.Metal>
1.0000

> <Gold.Chemscore.Hbonds>
donor molecule, donor type, donor heavy atom, donor atom, acceptor molecule, acceptor atom, score
      P1  M  1222  1222       L1    15  1.00

> <Gold.PLP.Chemscore.Internal.Correction>
0.0000

> <Gold.Protein.RotatedTorsions>
[ 1849  621  620  617 ] final  -82.20 input   60.00 | X-H torsion

> <Gold.Protein.ActiveResidues>
 HIS54   GLU57   HIS58   ALA61   PHE62   ILE76   ILE77   ASP78   ILE79   SER80  
 PRO81   GLN125  CYS126  GLY127  GLN128  HIS132  CO701  

> <Gold.Protein.RotatedAtoms>
  -19.6546   27.8388  -13.9103 H   0  0  0  0  0  0  0  0  0  0  0  0  # atno 1849 bound_to 621 
  -18.0887   27.5405  -13.5830 LP  0  0  0  0  0  0  0  0  0  0  0  0  # atno 2431 bound_to 621 
  -18.8330   28.8327  -12.9176 LP  0  0  0  0  0  0  0  0  0  0  0  0  # atno 2432 bound_to 621 

$$$$
Compound 88|DecoysActives|sdf|95|dock2
  -GOLD-   6112412133D 1   1.00000     0.00000

 22 23  0  0  0  0  0  0  0  0  1 V2000
  -26.7640   35.0139  -19.2486 O   0  0  0  0  0  0  0  0  0  0  0  0
  -26.3695   33.9381  -18.8149 C   0  0  0  0  0  0  0  0  0  0  0  0
  -26.3413   32.8147  -19.6078 N   0  0  0  0  0  0  0  0  0  0  0  0
  -25.8873   33.7410  -17.4317 C   0  0  0  0  0  0  0  0  0  0  0  0
  -25.8903   31.5913  -19.1818 C   0  0  0  0  0  0  0  0  0  0  0  0
  -25.8812   34.7921  -16.5672 N   0  0  0  0  0  0  0  0  0  0  0  0
  -25.4553   32.4591  -17.0979 C   0  0  0  0  0  0  0  0  0  0  0  0
  -25.4594   31.3717  -17.9839 N   0  0  0  0  0  0  0  0  0  0  0  0
  -25.9578   30.4802  -20.2175 C   0  0  0  0  0  0  0  0  0  0  0  0
  -25.4168   34.4948  -15.3342 C   0  0  0  0  0  0  0  0  0  0  0  0
  -24.9925   32.1817  -15.8576 N   0  0  0  0  0  0  0  0  0  0  0  0
  -26.8097   29.4216  -19.7910 O   0  0  0  0  0  0  0  0  0  0  0  0
  -24.9837   33.2221  -14.9887 C   0  0  0  0  0  0  0  0  0  0  0  0
  -26.0831   28.3743  -19.1560 C   0  0  0  0  0  0  0  0  0  0  0  0
  -26.6437   32.9214  -20.5700 H   0  0  0  0  0  0  0  0  0  0  0  0
  -24.9475   30.0682  -20.3140 H   0  0  0  0  0  0  0  0  0  0  0  0
  -26.2569   30.8741  -21.1950 H   0  0  0  0  0  0  0  0  0  0  0  0
  -25.4001   35.3120  -14.6212 H   0  0  0  0  0  0  0  0  0  0  0  0
  -24.6137   33.0019  -13.9930 H   0  0  0  0  0  0  0  0  0  0  0  0
  -26.7898   27.5877  -18.8782 H   0  0  0  0  0  0  0  0  0  0  0  0
  -25.5985   28.7436  -18.2471 H   0  0  0  0  0  0  0  0  0  0  0  0
  -25.3383   27.9503  -19.8358 H   0  0  0  0  0  0  0  0  0  0  0  0
  1  2  2  0  0  0  0
  2  3  1  0  0  0  0
  2  4  1  0  0  0  0
  3  5  1  0  0  0  0
  3 15  1  0  0  0  0
  4  6  2  0  0  0  0
  4  7  1  0  0  0  0
  5  8  2  0  0  0  0
  5  9  1  0  0  0  0
  6 10  1  0  0  0  0
  7 11  2  0  0  0  0
  7  8  1  0  0  0  0
  9 12  1  0  0  0  0
  9 16  1  0  0  0  0
  9 17  1  0  0  0  0
 10 13  2  0  0  0  0
 10 18  1  0  0  0  0
 11 13  1  0  0  0  0
 12 14  1  0  0  0  0
 13 19  1  0  0  0  0
 14 20  1  0  0  0  0
 14 21  1  0  0  0  0
 14 22  1  0  0  0  0
M  END
>  <Column 1>
COCc1nc2nccnc2c(=O)[nH]1 ZINC000000012984

>  <Total Molweight>
192.178

>  <cLogP>
-1.3062

>  <cLogS>
-0.615

>  <H-Acceptors>
6

>  <H-Donors>
1

>  <Total Surface Area>
145.48

>  <MMFF94 Energy>
77.044

> <Gold.Version>
5.8.1

> <Gold.Id.Protein>
ID|2FQT|mol2

> <Gold.PLP.Fitness>
44.4925

> <Gold.PLP.PLP>
-28.2196

> <Gold.PLP.part.hbond>
-2.0000

> <Gold.PLP.part.metal>
-1.0000

> <Gold.PLP.part.buried>
-3.8865

> <Gold.PLP.part.nonpolar>
-23.7766

> <Gold.PLP.part.repulsive>
0.6377

> <Gold.PLP.ligand.clash>
0.0000

> <Gold.PLP.ligand.torsion>
0.2365

> <Gold.PLP.Chemscore.Hbond>
1.9280

> <Gold.PLP.Chemscore.CHOScore>
1.6805

> <Gold.PLP.Chemscore.Metal>
0.9865

> <Gold.Chemscore.Hbonds>
donor molecule, donor type, donor heavy atom, donor atom, acceptor molecule, acceptor atom, score
      L1  H     3    15       P1   954  0.93
      P1  H   966  2177       L1    12  1.00
      L1  C    10    18       P1   431  0.78
      L1  C    13    19       P1   422  0.90
      P1  M  1222  1222       L1    12  0.99

> <Gold.PLP.Chemscore.Internal.Correction>
0.0010

> <Gold.Protein.RotatedTorsions>
[ 1849  621  620  617 ] final  -30.21 input   60.00 | X-H torsion

> <Gold.Protein.ActiveResidues>
 HIS54   GLU57   HIS58   ALA61   PHE62   ILE76   ILE77   ASP78   ILE79   SER80  
 PRO81   GLN125  CYS126  GLY127  GLN128  HIS132  CO701  

> <Gold.Protein.RotatedAtoms>
  -19.6859   28.5111  -13.4406 H   0  0  0  0  0  0  0  0  0  0  0  0  # atno 1849 bound_to 621 
  -18.7612   27.2919  -13.9942 LP  0  0  0  0  0  0  0  0  0  0  0  0  # atno 2431 bound_to 621 
  -18.1290   28.4043  -12.9795 LP  0  0  0  0  0  0  0  0  0  0  0  0  # atno 2432 bound_to 621 

$$$$
Compound 89|DecoysActives|sdf|96|dock1
  -GOLD-   6112412133D 1   1.00000     0.00000

 33 34  0  0  0  0  0  0  0  0  1 V2000
  -26.0688   29.7265  -19.0020 S   0  0  0  0  0  0  0  0  0  0  0  0
  -26.3698   29.2838  -17.6576 O   0  0  0  0  0  0  0  0  0  0  0  0
  -27.0426   29.6153  -20.0663 O   0  0  0  0  0  0  0  0  0  0  0  0
  -25.5805   31.3342  -18.9161 N   0  0  0  0  0  0  0  0  0  0  0  0
  -24.5862   28.8902  -19.5335 C   0  0  0  0  0  0  0  0  0  0  0  0
  -24.8592   31.7932  -17.6949 C   0  0  0  0  0  0  0  0  0  0  0  0
  -26.4555   32.3527  -19.5566 C   0  0  0  0  0  0  0  0  0  0  0  0
  -25.6007   32.9243  -16.9605 C   0  0  0  0  0  0  0  0  0  0  0  0
  -25.9656   33.7892  -19.2918 C   0  0  0  0  0  0  0  0  0  0  0  0
  -25.8763   34.0567  -17.8541 N   0  0  0  0  0  0  0  0  0  0  0  0
  -26.1249   35.2891  -17.2864 C   0  0  0  0  0  0  0  0  0  0  0  0
  -26.4926   36.2944  -18.1046 N   0  0  0  0  0  0  0  0  0  0  0  0
  -26.0194   35.5111  -15.9265 C   0  0  0  0  0  0  0  0  0  0  0  0
  -26.7289   37.5080  -17.5696 C   0  0  0  0  0  0  0  0  0  0  0  0
  -26.2920   36.7802  -15.4664 C   0  0  0  0  0  0  0  0  0  0  0  0
  -26.6477   37.7974  -16.2626 N   0  0  0  0  0  0  0  0  0  0  0  0
  -27.1600   38.5998  -18.4972 C   0  0  0  0  0  0  0  0  0  0  0  0
  -24.2779   29.2828  -20.5034 H   0  0  0  0  0  0  0  0  0  0  0  0
  -24.8216   27.8275  -19.6277 H   0  0  0  0  0  0  0  0  0  0  0  0
  -23.8041   29.0250  -18.7855 H   0  0  0  0  0  0  0  0  0  0  0  0
  -23.8693   32.1424  -18.0136 H   0  0  0  0  0  0  0  0  0  0  0  0
  -24.6925   30.9660  -16.9975 H   0  0  0  0  0  0  0  0  0  0  0  0
  -27.4774   32.2500  -19.1750 H   0  0  0  0  0  0  0  0  0  0  0  0
  -26.4702   32.1817  -20.6384 H   0  0  0  0  0  0  0  0  0  0  0  0
  -26.5480   32.5450  -16.5582 H   0  0  0  0  0  0  0  0  0  0  0  0
  -24.9714   33.2322  -16.1160 H   0  0  0  0  0  0  0  0  0  0  0  0
  -26.6745   34.4661  -19.7818 H   0  0  0  0  0  0  0  0  0  0  0  0
  -24.9801   33.9430  -19.7472 H   0  0  0  0  0  0  0  0  0  0  0  0
  -25.7587   34.7325  -15.2247 H   0  0  0  0  0  0  0  0  0  0  0  0
  -26.2338   37.0160  -14.4080 H   0  0  0  0  0  0  0  0  0  0  0  0
  -26.8376   39.5752  -18.1205 H   0  0  0  0  0  0  0  0  0  0  0  0
  -26.7246   38.4555  -19.4905 H   0  0  0  0  0  0  0  0  0  0  0  0
  -28.2502   38.5983  -18.5861 H   0  0  0  0  0  0  0  0  0  0  0  0
  1  2  2  0  0  0  0
  1  3  2  0  0  0  0
  1  4  1  0  0  0  0
  1  5  1  0  0  0  0
  4  6  1  0  0  0  0
  4  7  1  0  0  0  0
  5 18  1  0  0  0  0
  5 19  1  0  0  0  0
  5 20  1  0  0  0  0
  6  8  1  0  0  0  0
  6 21  1  0  0  0  0
  6 22  1  0  0  0  0
  7  9  1  0  0  0  0
  7 23  1  0  0  0  0
  7 24  1  0  0  0  0
  8 10  1  0  0  0  0
  8 25  1  0  0  0  0
  8 26  1  0  0  0  0
  9 10  1  0  0  0  0
  9 27  1  0  0  0  0
  9 28  1  0  0  0  0
 10 11  1  0  0  0  0
 11 12  2  0  0  0  0
 11 13  1  0  0  0  0
 12 14  1  0  0  0  0
 13 15  2  0  0  0  0
 13 29  1  0  0  0  0
 14 16  2  0  0  0  0
 14 17  1  0  0  0  0
 15 16  1  0  0  0  0
 15 30  1  0  0  0  0
 17 31  1  0  0  0  0
 17 32  1  0  0  0  0
 17 33  1  0  0  0  0
M  END
>  <Column 1>
Cc1nccc(N2CCN(S(C)(=O)=O)CC2)n1 ZINC000000013140

>  <Total Molweight>
256.329

>  <cLogP>
0.0782

>  <cLogS>
-1.072

>  <H-Acceptors>
6

>  <H-Donors>
0

>  <Total Surface Area>
186.02

>  <MMFF94 Energy>
-31.108

> <Gold.Version>
5.8.1

> <Gold.Id.Protein>
ID|2FQT|mol2

> <Gold.PLP.Fitness>
51.1960

> <Gold.PLP.PLP>
-33.3669

> <Gold.PLP.part.hbond>
-0.9687

> <Gold.PLP.part.metal>
-2.0000

> <Gold.PLP.part.buried>
2.9070

> <Gold.PLP.part.nonpolar>
-34.0508

> <Gold.PLP.part.repulsive>
1.0818

> <Gold.PLP.ligand.clash>
0.0000

> <Gold.PLP.ligand.torsion>
1.0622

> <Gold.PLP.Chemscore.Hbond>
1.0000

> <Gold.PLP.Chemscore.CHOScore>
1.0000

> <Gold.PLP.Chemscore.Metal>
1.9863

> <Gold.Chemscore.Hbonds>
donor molecule, donor type, donor heavy atom, donor atom, acceptor molecule, acceptor atom, score
      P1  H   966  2177       L1     3  1.00
      L1  C    15    30       P1   431  1.00
      P1  M  1222  1222       L1     2  1.00
      P1  M  1222  1222       L1     3  0.99

> <Gold.PLP.Chemscore.Internal.Correction>
2.0356

> <Gold.Protein.RotatedTorsions>
[ 1849  621  620  617 ] final  176.00 input   60.00 | X-H torsion

> <Gold.Protein.ActiveResidues>
 HIS54   GLU57   HIS58   ALA61   PHE62   ILE76   ILE77   ASP78   ILE79   SER80  
 PRO81   GLN125  CYS126  GLY127  GLN128  HIS132  CO701  

> <Gold.Protein.RotatedAtoms>
  -18.2810   27.3912  -13.7535 H   0  0  0  0  0  0  0  0  0  0  0  0  # atno 1849 bound_to 621 
  -18.5512   28.7409  -12.8854 LP  0  0  0  0  0  0  0  0  0  0  0  0  # atno 2431 bound_to 621 
  -19.7537   28.0831  -13.7731 LP  0  0  0  0  0  0  0  0  0  0  0  0  # atno 2432 bound_to 621 

$$$$
Compound 90|DecoysActives|sdf|97|dock15
  -GOLD-   6112412133D 1   1.00000     0.00000

 38 39  0  0  0  0  0  0  0  0  1 V2000
  -26.1119   30.2096  -18.8393 S   0  0  0  0  0  0  0  0  0  0  0  0
  -26.4779   29.6361  -17.5637 O   0  0  0  0  0  0  0  0  0  0  0  0
  -27.0785   30.3608  -19.9012 O   0  0  0  0  0  0  0  0  0  0  0  0
  -25.4193   31.7035  -18.5184 N   0  0  0  0  0  0  0  0  0  0  0  0
  -24.7712   29.3637  -19.4389 N   0  0  0  0  0  0  0  0  0  0  0  0
  -25.2977   32.1324  -17.0930 C   0  0  0  0  0  0  0  0  0  0  0  0
  -25.8342   32.8305  -19.4093 C   0  0  0  0  0  0  0  0  0  0  0  0
  -24.8683   28.9108  -20.8417 C   0  0  0  0  0  0  0  0  0  0  0  0
  -24.2669   28.2974  -18.5494 C   0  0  0  0  0  0  0  0  0  0  0  0
  -24.3121   33.3145  -16.9796 C   0  0  0  0  0  0  0  0  0  0  0  0
  -24.8445   34.0096  -19.2771 C   0  0  0  0  0  0  0  0  0  0  0  0
  -24.7191   34.4217  -17.8669 N   0  0  0  0  0  0  0  0  0  0  0  0
  -25.6180   35.3516  -17.3560 C   0  0  0  0  0  0  0  0  0  0  0  0
  -26.1844   35.1179  -16.1587 N   0  0  0  0  0  0  0  0  0  0  0  0
  -25.9059   36.5145  -18.0516 C   0  0  0  0  0  0  0  0  0  0  0  0
  -27.0436   36.0372  -15.6941 C   0  0  0  0  0  0  0  0  0  0  0  0
  -26.8057   37.4034  -17.4900 C   0  0  0  0  0  0  0  0  0  0  0  0
  -27.3962   37.1739  -16.3048 N   0  0  0  0  0  0  0  0  0  0  0  0
  -27.1452   38.6809  -18.1963 C   0  0  0  0  0  0  0  0  0  0  0  0
  -24.9176   31.3084  -16.4811 H   0  0  0  0  0  0  0  0  0  0  0  0
  -26.2810   32.4281  -16.7150 H   0  0  0  0  0  0  0  0  0  0  0  0
  -25.8403   32.5084  -20.4553 H   0  0  0  0  0  0  0  0  0  0  0  0
  -26.8452   33.1568  -19.1397 H   0  0  0  0  0  0  0  0  0  0  0  0
  -25.4838   28.0088  -20.9168 H   0  0  0  0  0  0  0  0  0  0  0  0
  -25.2878   29.6795  -21.4935 H   0  0  0  0  0  0  0  0  0  0  0  0
  -23.8662   28.6835  -21.2200 H   0  0  0  0  0  0  0  0  0  0  0  0
  -25.0362   27.5400  -18.3707 H   0  0  0  0  0  0  0  0  0  0  0  0
  -23.9311   28.7207  -17.5980 H   0  0  0  0  0  0  0  0  0  0  0  0
  -23.3989   27.8073  -19.0029 H   0  0  0  0  0  0  0  0  0  0  0  0
  -23.3165   32.9763  -17.2957 H   0  0  0  0  0  0  0  0  0  0  0  0
  -24.2040   33.6378  -15.9372 H   0  0  0  0  0  0  0  0  0  0  0  0
  -25.1514   34.8285  -19.9357 H   0  0  0  0  0  0  0  0  0  0  0  0
  -23.8558   33.6862  -19.6276 H   0  0  0  0  0  0  0  0  0  0  0  0
  -25.4212   36.7454  -18.9910 H   0  0  0  0  0  0  0  0  0  0  0  0
  -27.4968   35.8388  -14.7293 H   0  0  0  0  0  0  0  0  0  0  0  0
  -26.2480   39.2959  -18.3174 H   0  0  0  0  0  0  0  0  0  0  0  0
  -27.5708   38.4671  -19.1816 H   0  0  0  0  0  0  0  0  0  0  0  0
  -27.8801   39.2585  -17.6262 H   0  0  0  0  0  0  0  0  0  0  0  0
  1  2  2  0  0  0  0
  1  3  2  0  0  0  0
  1  4  1  0  0  0  0
  1  5  1  0  0  0  0
  4  6  1  0  0  0  0
  4  7  1  0  0  0  0
  5  8  1  0  0  0  0
  5  9  1  0  0  0  0
  6 10  1  0  0  0  0
  6 20  1  0  0  0  0
  6 21  1  0  0  0  0
  7 11  1  0  0  0  0
  7 22  1  0  0  0  0
  7 23  1  0  0  0  0
  8 24  1  0  0  0  0
  8 25  1  0  0  0  0
  8 26  1  0  0  0  0
  9 27  1  0  0  0  0
  9 28  1  0  0  0  0
  9 29  1  0  0  0  0
 10 12  1  0  0  0  0
 10 30  1  0  0  0  0
 10 31  1  0  0  0  0
 11 12  1  0  0  0  0
 11 32  1  0  0  0  0
 11 33  1  0  0  0  0
 12 13  1  0  0  0  0
 13 14  2  0  0  0  0
 13 15  1  0  0  0  0
 14 16  1  0  0  0  0
 15 17  2  0  0  0  0
 15 34  1  0  0  0  0
 16 18  2  0  0  0  0
 16 35  1  0  0  0  0
 17 19  1  0  0  0  0
 17 18  1  0  0  0  0
 19 36  1  0  0  0  0
 19 37  1  0  0  0  0
 19 38  1  0  0  0  0
M  END
>  <Column 1>
Cc1cc(N2CCN(S(=O)(=O)N(C)C)CC2)ncn1 ZINC000000013146

>  <Total Molweight>
285.371

>  <cLogP>
0.1004

>  <cLogS>
-0.845

>  <H-Acceptors>
7

>  <H-Donors>
0

>  <Total Surface Area>
208.58

>  <MMFF94 Energy>
-145.78

> <Gold.Version>
5.8.1

> <Gold.Id.Protein>
ID|2FQT|mol2

> <Gold.PLP.Fitness>
44.7253

> <Gold.PLP.PLP>
-27.4386

> <Gold.PLP.part.hbond>
-1.0000

> <Gold.PLP.part.metal>
-2.0000

> <Gold.PLP.part.buried>
0.3354

> <Gold.PLP.part.nonpolar>
-26.1714

> <Gold.PLP.part.repulsive>
1.2546

> <Gold.PLP.ligand.clash>
0.0000

> <Gold.PLP.ligand.torsion>
0.7069

> <Gold.PLP.Chemscore.Hbond>
1.0000

> <Gold.PLP.Chemscore.CHOScore>
0.7775

> <Gold.PLP.Chemscore.Metal>
1.9998

> <Gold.Chemscore.Hbonds>
donor molecule, donor type, donor heavy atom, donor atom, acceptor molecule, acceptor atom, score
      P1  H   966  2177       L1     3  1.00
      L1  C    16    35       P1   431  0.78
      P1  M  1222  1222       L1     2  1.00
      P1  M  1222  1222       L1     3  1.00

> <Gold.PLP.Chemscore.Internal.Correction>
1.3693

> <Gold.Protein.RotatedTorsions>
[ 1849  621  620  617 ] final    0.06 input   60.00 | X-H torsion

> <Gold.Protein.ActiveResidues>
 HIS54   GLU57   HIS58   ALA61   PHE62   ILE76   ILE77   ASP78   ILE79   SER80  
 PRO81   GLN125  CYS126  GLY127  GLN128  HIS132  CO701  

> <Gold.Protein.RotatedAtoms>
  -19.3908   28.7723  -13.1514 H   0  0  0  0  0  0  0  0  0  0  0  0  # atno 1849 bound_to 621 
  -19.2293   27.4304  -14.0577 LP  0  0  0  0  0  0  0  0  0  0  0  0  # atno 2431 bound_to 621 
  -17.9581   28.0027  -13.2073 LP  0  0  0  0  0  0  0  0  0  0  0  0  # atno 2432 bound_to 621 

$$$$
Compound 91|DecoysActives|sdf|98|dock3
  -GOLD-   6112412133D 1   1.00000     0.00000

 33 34  0  0  0  0  0  0  0  0  1 V2000
  -26.0888   29.2975  -19.0962 S   0  0  0  0  0  0  0  0  0  0  0  0
  -26.4692   28.6991  -17.8354 O   0  0  0  0  0  0  0  0  0  0  0  0
  -27.0828   29.6972  -20.0694 O   0  0  0  0  0  0  0  0  0  0  0  0
  -25.1301   30.6582  -18.7515 N   0  0  0  0  0  0  0  0  0  0  0  0
  -24.9239   28.2312  -19.9205 C   0  0  0  0  0  0  0  0  0  0  0  0
  -24.8999   30.9444  -17.2937 C   0  0  0  0  0  0  0  0  0  0  0  0
  -25.5380   31.8754  -19.5306 C   0  0  0  0  0  0  0  0  0  0  0  0
  -25.6249   32.2099  -16.8018 C   0  0  0  0  0  0  0  0  0  0  0  0
  -24.8840   33.1634  -18.9974 C   0  0  0  0  0  0  0  0  0  0  0  0
  -25.2030   33.3799  -17.5839 N   0  0  0  0  0  0  0  0  0  0  0  0
  -25.2520   34.6271  -16.9961 C   0  0  0  0  0  0  0  0  0  0  0  0
  -24.0887   35.2594  -16.7586 N   0  0  0  0  0  0  0  0  0  0  0  0
  -26.4493   35.2394  -16.6624 C   0  0  0  0  0  0  0  0  0  0  0  0
  -24.1409   36.4692  -16.1820 C   0  0  0  0  0  0  0  0  0  0  0  0
  -26.4039   36.4933  -16.0747 C   0  0  0  0  0  0  0  0  0  0  0  0
  -25.2475   37.1278  -15.8223 N   0  0  0  0  0  0  0  0  0  0  0  0
  -27.6733   37.1968  -15.6994 C   0  0  0  0  0  0  0  0  0  0  0  0
  -24.5220   28.7543  -20.7902 H   0  0  0  0  0  0  0  0  0  0  0  0
  -25.4622   27.3375  -20.2441 H   0  0  0  0  0  0  0  0  0  0  0  0
  -24.1296   27.9491  -19.2288 H   0  0  0  0  0  0  0  0  0  0  0  0
  -25.1969   30.0953  -16.6704 H   0  0  0  0  0  0  0  0  0  0  0  0
  -23.8169   31.0616  -17.1612 H   0  0  0  0  0  0  0  0  0  0  0  0
  -25.2401   31.7373  -20.5758 H   0  0  0  0  0  0  0  0  0  0  0  0
  -26.6292   31.9854  -19.4922 H   0  0  0  0  0  0  0  0  0  0  0  0
  -25.3791   32.3274  -15.7394 H   0  0  0  0  0  0  0  0  0  0  0  0
  -26.7111   32.0856  -16.8866 H   0  0  0  0  0  0  0  0  0  0  0  0
  -25.2503   33.9917  -19.6154 H   0  0  0  0  0  0  0  0  0  0  0  0
  -23.7953   33.1061  -19.1140 H   0  0  0  0  0  0  0  0  0  0  0  0
  -27.4049   34.7754  -16.8628 H   0  0  0  0  0  0  0  0  0  0  0  0
  -23.1933   36.9598  -15.9905 H   0  0  0  0  0  0  0  0  0  0  0  0
  -28.2890   37.3657  -16.5882 H   0  0  0  0  0  0  0  0  0  0  0  0
  -28.2385   36.5984  -14.9782 H   0  0  0  0  0  0  0  0  0  0  0  0
  -27.4605   38.1688  -15.2425 H   0  0  0  0  0  0  0  0  0  0  0  0
  1  2  2  0  0  0  0
  1  3  2  0  0  0  0
  1  4  1  0  0  0  0
  1  5  1  0  0  0  0
  4  6  1  0  0  0  0
  4  7  1  0  0  0  0
  5 18  1  0  0  0  0
  5 19  1  0  0  0  0
  5 20  1  0  0  0  0
  6  8  1  0  0  0  0
  6 21  1  0  0  0  0
  6 22  1  0  0  0  0
  7  9  1  0  0  0  0
  7 23  1  0  0  0  0
  7 24  1  0  0  0  0
  8 10  1  0  0  0  0
  8 25  1  0  0  0  0
  8 26  1  0  0  0  0
  9 10  1  0  0  0  0
  9 27  1  0  0  0  0
  9 28  1  0  0  0  0
 10 11  1  0  0  0  0
 11 12  2  0  0  0  0
 11 13  1  0  0  0  0
 12 14  1  0  0  0  0
 13 15  2  0  0  0  0
 13 29  1  0  0  0  0
 14 16  2  0  0  0  0
 14 30  1  0  0  0  0
 15 17  1  0  0  0  0
 15 16  1  0  0  0  0
 17 31  1  0  0  0  0
 17 32  1  0  0  0  0
 17 33  1  0  0  0  0
M  END
>  <Column 1>
Cc1cc(N2CCN(S(C)(=O)=O)CC2)ncn1 ZINC000000013147

>  <Total Molweight>
256.329

>  <cLogP>
0.2427

>  <cLogS>
-1.812

>  <H-Acceptors>
6

>  <H-Donors>
0

>  <Total Surface Area>
186.02

>  <MMFF94 Energy>
-30.242

> <Gold.Version>
5.8.1

> <Gold.Id.Protein>
ID|2FQT|mol2

> <Gold.PLP.Fitness>
44.9279

> <Gold.PLP.PLP>
-32.6945

> <Gold.PLP.part.hbond>
-0.9600

> <Gold.PLP.part.metal>
-2.0000

> <Gold.PLP.part.buried>
-1.8245

> <Gold.PLP.part.nonpolar>
-27.9817

> <Gold.PLP.part.repulsive>
0.2908

> <Gold.PLP.ligand.clash>
0.0000

> <Gold.PLP.ligand.torsion>
1.5100

> <Gold.PLP.Chemscore.Hbond>
1.0000

> <Gold.PLP.Chemscore.CHOScore>
0.0000

> <Gold.PLP.Chemscore.Metal>
1.9816

> <Gold.Chemscore.Hbonds>
donor molecule, donor type, donor heavy atom, donor atom, acceptor molecule, acceptor atom, score
      P1  H   966  2177       L1     3  1.00
      P1  M  1222  1222       L1     2  0.99
      P1  M  1222  1222       L1     3  1.00

> <Gold.PLP.Chemscore.Internal.Correction>
0.3637

> <Gold.Protein.RotatedTorsions>
[ 1849  621  620  617 ] final  -50.97 input   60.00 | X-H torsion

> <Gold.Protein.ActiveResidues>
 HIS54   GLU57   HIS58   ALA61   PHE62   ILE76   ILE77   ASP78   ILE79   SER80  
 PRO81   GLN125  CYS126  GLY127  GLN128  HIS132  CO701  

> <Gold.Protein.RotatedAtoms>
  -19.7608   28.2564  -13.6487 H   0  0  0  0  0  0  0  0  0  0  0  0  # atno 1849 bound_to 621 
  -18.4480   27.3197  -13.8656 LP  0  0  0  0  0  0  0  0  0  0  0  0  # atno 2431 bound_to 621 
  -18.3667   28.6330  -12.8985 LP  0  0  0  0  0  0  0  0  0  0  0  0  # atno 2432 bound_to 621 

$$$$
Compound 92|DecoysActives|sdf|99|dock2
  -GOLD-   6112412133D 1   1.00000     0.00000

 16 16  0  0  0  0  0  0  0  0  1 V2000
  -25.8952   34.5854  -19.6114 O   0  0  0  0  0  0  0  0  0  0  0  0
  -25.7135   33.4531  -19.1838 C   0  0  0  0  0  0  0  0  0  0  0  0
  -26.4807   32.4008  -19.5691 N   0  0  0  0  0  0  0  0  0  0  0  0
  -24.6836   33.1689  -18.3521 N   0  0  0  0  0  0  0  0  0  0  0  0
  -26.2275   31.0727  -19.3314 C   0  0  0  0  0  0  0  0  0  0  0  0
  -24.5766   31.9533  -17.5728 C   0  0  2  0  0  0  0  0  0  0  0  0
  -26.8502   30.1790  -19.8877 O   0  0  0  0  0  0  0  0  0  0  0  0
  -25.1225   30.7603  -18.3266 C   0  0  0  0  0  0  0  0  0  0  0  0
  -25.2967   32.0911  -16.2380 C   0  0  0  0  0  0  0  0  0  0  0  0
  -24.8353   29.6013  -18.0540 O   0  0  0  0  0  0  0  0  0  0  0  0
  -27.2259   32.6071  -20.2186 H   0  0  0  0  0  0  0  0  0  0  0  0
  -24.0960   33.9632  -18.1214 H   0  0  0  0  0  0  0  0  0  0  0  0
  -23.5063   31.7882  -17.4083 H   0  0  0  0  0  0  0  0  0  0  0  0
  -25.1825   31.1838  -15.6351 H   0  0  0  0  0  0  0  0  0  0  0  0
  -24.8968   32.9348  -15.6655 H   0  0  0  0  0  0  0  0  0  0  0  0
  -26.3704   32.2630  -16.3766 H   0  0  0  0  0  0  0  0  0  0  0  0
  1  2  2  0  0  0  0
  2  3  1  0  0  0  0
  2  4  1  0  0  0  0
  3  5  1  0  0  0  0
  3 11  1  0  0  0  0
  4  6  1  0  0  0  0
  4 12  1  0  0  0  0
  5  7  2  0  0  0  0
  5  8  1  0  0  0  0
  6  9  1  0  0  0  0
  6  8  1  0  0  0  0
  6 13  1  0  0  0  0
  8 10  2  0  0  0  0
  9 14  1  0  0  0  0
  9 15  1  0  0  0  0
  9 16  1  0  0  0  0
M  END
>  <Column 1>
CC1NC(=O)NC(=O)C1=O ZINC000000013352

>  <Total Molweight>
142.114

>  <cLogP>
-1.1574

>  <cLogS>
-1.058

>  <H-Acceptors>
5

>  <H-Donors>
2

>  <Total Surface Area>
100.93

>  <MMFF94 Energy>
-56.247

> <Gold.Version>
5.8.1

> <Gold.Id.Protein>
ID|2FQT|mol2

> <Gold.PLP.Fitness>
28.8349

> <Gold.PLP.PLP>
-16.9157

> <Gold.PLP.part.hbond>
-2.0000

> <Gold.PLP.part.metal>
-1.0000

> <Gold.PLP.part.buried>
-1.2360

> <Gold.PLP.part.nonpolar>
-13.1695

> <Gold.PLP.part.repulsive>
0.4411

> <Gold.PLP.ligand.clash>
0.0000

> <Gold.PLP.ligand.torsion>
0.0000

> <Gold.PLP.Chemscore.Hbond>
2.0000

> <Gold.PLP.Chemscore.CHOScore>
0.0000

> <Gold.PLP.Chemscore.Metal>
0.9865

> <Gold.Chemscore.Hbonds>
donor molecule, donor type, donor heavy atom, donor atom, acceptor molecule, acceptor atom, score
      L1  H     3    11       P1   954  1.00
      P1  H   966  2177       L1     7  1.00
      P1  M  1222  1222       L1     7  0.99

> <Gold.PLP.Chemscore.Internal.Correction>
0.0000

> <Gold.Protein.RotatedTorsions>
[ 1849  621  620  617 ] final  -58.57 input   60.00 | X-H torsion

> <Gold.Protein.ActiveResidues>
 HIS54   GLU57   HIS58   ALA61   PHE62   ILE76   ILE77   ASP78   ILE79   SER80  
 PRO81   GLN125  CYS126  GLY127  GLN128  HIS132  CO701  

> <Gold.Protein.RotatedAtoms>
  -19.7591   28.1551  -13.7205 H   0  0  0  0  0  0  0  0  0  0  0  0  # atno 1849 bound_to 621 
  -18.3446   27.3549  -13.8046 LP  0  0  0  0  0  0  0  0  0  0  0  0  # atno 2431 bound_to 621 
  -18.4719   28.6998  -12.8872 LP  0  0  0  0  0  0  0  0  0  0  0  0  # atno 2432 bound_to 621 

$$$$
Compound 93|DecoysActives|sdf|100|dock2
  -GOLD-   6112412133D 1   1.00000     0.00000

 32 34  0  0  0  0  0  0  0  0  1 V2000
  -23.5400   34.1187  -16.7837 N   0  0  0  0  0  0  0  0  0  0  0  0
  -23.5633   35.3661  -16.2987 N   0  0  0  0  0  0  0  0  0  0  0  0
  -24.7970   33.8922  -17.1812 C   0  0  0  0  0  0  0  0  0  0  0  0
  -24.7941   35.9570  -16.3090 C   0  0  0  0  0  0  0  0  0  0  0  0
  -25.2097   32.7334  -17.7651 N   0  0  0  0  0  0  0  0  0  0  0  0
  -25.6429   35.0069  -16.8675 C   0  0  0  0  0  0  0  0  0  0  0  0
  -25.2228   37.2151  -15.8722 C   0  0  0  0  0  0  0  0  0  0  0  0
  -25.2991   31.4944  -16.9804 C   0  0  0  0  0  0  0  0  0  0  0  0
  -26.1970   32.8055  -18.8548 C   0  0  0  0  0  0  0  0  0  0  0  0
  -27.0165   35.3157  -16.9610 C   0  0  0  0  0  0  0  0  0  0  0  0
  -26.5848   37.5037  -15.9985 C   0  0  0  0  0  0  0  0  0  0  0  0
  -25.2375   30.2567  -17.9035 C   0  0  0  0  0  0  0  0  0  0  0  0
  -26.1317   31.5382  -19.7375 C   0  0  0  0  0  0  0  0  0  0  0  0
  -27.4716   36.5683  -16.5288 C   0  0  0  0  0  0  0  0  0  0  0  0
  -26.2685   30.2832  -18.9636 N   0  0  0  0  0  0  0  0  0  0  0  0
  -26.1408   29.1211  -19.8394 C   0  0  0  0  0  0  0  0  0  0  0  0
  -22.6958   35.7592  -15.9555 H   0  0  0  0  0  0  0  0  0  0  0  0
  -24.5353   37.9373  -15.4448 H   0  0  0  0  0  0  0  0  0  0  0  0
  -24.4988   31.4102  -16.2401 H   0  0  0  0  0  0  0  0  0  0  0  0
  -26.2454   31.4898  -16.4234 H   0  0  0  0  0  0  0  0  0  0  0  0
  -27.2050   32.9143  -18.4339 H   0  0  0  0  0  0  0  0  0  0  0  0
  -26.0062   33.6730  -19.4991 H   0  0  0  0  0  0  0  0  0  0  0  0
  -27.7210   34.5872  -17.3481 H   0  0  0  0  0  0  0  0  0  0  0  0
  -26.9597   38.4696  -15.6670 H   0  0  0  0  0  0  0  0  0  0  0  0
  -25.3748   29.3614  -17.2851 H   0  0  0  0  0  0  0  0  0  0  0  0
  -24.2352   30.1977  -18.3495 H   0  0  0  0  0  0  0  0  0  0  0  0
  -26.9355   31.5972  -20.4813 H   0  0  0  0  0  0  0  0  0  0  0  0
  -25.1788   31.5404  -20.2843 H   0  0  0  0  0  0  0  0  0  0  0  0
  -28.5296   36.8083  -16.6022 H   0  0  0  0  0  0  0  0  0  0  0  0
  -26.2710   28.1952  -19.2685 H   0  0  0  0  0  0  0  0  0  0  0  0
  -26.9235   29.1311  -20.6060 H   0  0  0  0  0  0  0  0  0  0  0  0
  -25.1674   29.0819  -20.3415 H   0  0  0  0  0  0  0  0  0  0  0  0
  1  2  1  0  0  0  0
  1  3  2  0  0  0  0
  2  4  1  0  0  0  0
  2 17  1  0  0  0  0
  3  5  1  0  0  0  0
  3  6  1  0  0  0  0
  4  7  1  0  0  0  0
  4  6  2  0  0  0  0
  5  8  1  0  0  0  0
  5  9  1  0  0  0  0
  6 10  1  0  0  0  0
  7 11  2  0  0  0  0
  7 18  1  0  0  0  0
  8 12  1  0  0  0  0
  8 19  1  0  0  0  0
  8 20  1  0  0  0  0
  9 13  1  0  0  0  0
  9 21  1  0  0  0  0
  9 22  1  0  0  0  0
 10 14  2  0  0  0  0
 10 23  1  0  0  0  0
 11 14  1  0  0  0  0
 11 24  1  0  0  0  0
 12 15  1  0  0  0  0
 12 25  1  0  0  0  0
 12 26  1  0  0  0  0
 13 15  1  0  0  0  0
 13 27  1  0  0  0  0
 13 28  1  0  0  0  0
 14 29  1  0  0  0  0
 15 16  1  0  0  0  0
 16 30  1  0  0  0  0
 16 31  1  0  0  0  0
 16 32  1  0  0  0  0
M  END
>  <Column 1>
CN1CCN(c2n[nH]c3ccccc23)CC1 ZINC000000013498

>  <Total Molweight>
216.287

>  <cLogP>
0.9999

>  <cLogS>
-1.82

>  <H-Acceptors>
4

>  <H-Donors>
1

>  <Total Surface Area>
170.59

>  <MMFF94 Energy>
71.632

> <Gold.Version>
5.8.1

> <Gold.Id.Protein>
ID|2FQT|mol2

> <Gold.PLP.Fitness>
44.3284

> <Gold.PLP.PLP>
-40.2231

> <Gold.PLP.part.hbond>
0.0000

> <Gold.PLP.part.metal>
-1.0000

> <Gold.PLP.part.buried>
-1.0141

> <Gold.PLP.part.nonpolar>
-38.6571

> <Gold.PLP.part.repulsive>
0.0483

> <Gold.PLP.ligand.clash>
0.0000

> <Gold.PLP.ligand.torsion>
0.9729

> <Gold.PLP.Chemscore.Hbond>
0.0000

> <Gold.PLP.Chemscore.CHOScore>
0.0000

> <Gold.PLP.Chemscore.Metal>
0.9693

> <Gold.Chemscore.Hbonds>
donor molecule, donor type, donor heavy atom, donor atom, acceptor molecule, acceptor atom, score
      P1  M  1222  1222       L1    15  0.97

> <Gold.PLP.Chemscore.Internal.Correction>
0.2349

> <Gold.Protein.RotatedTorsions>
[ 1849  621  620  617 ] final -136.50 input   60.00 | X-H torsion

> <Gold.Protein.ActiveResidues>
 HIS54   GLU57   HIS58   ALA61   PHE62   ILE76   ILE77   ASP78   ILE79   SER80  
 PRO81   GLN125  CYS126  GLY127  GLN128  HIS132  CO701  

> <Gold.Protein.RotatedAtoms>
  -18.9776   27.3332  -14.0368 H   0  0  0  0  0  0  0  0  0  0  0  0  # atno 1849 bound_to 621 
  -18.0226   28.2273  -13.0691 LP  0  0  0  0  0  0  0  0  0  0  0  0  # atno 2431 bound_to 621 
  -19.5809   28.6551  -13.3042 LP  0  0  0  0  0  0  0  0  0  0  0  0  # atno 2432 bound_to 621 

$$$$
Compound 94|DecoysActives|sdf|101|dock3
  -GOLD-   6112412133D 1   1.00000     0.00000

 18 19  0  0  0  0  0  0  0  0  1 V2000
  -26.4940   34.3248  -18.6619 S   0  0  0  0  0  0  0  0  0  0  0  0
  -26.1036   32.6961  -18.7406 C   0  0  0  0  0  0  0  0  0  0  0  0
  -25.8464   34.4199  -17.0695 C   0  0  0  0  0  0  0  0  0  0  0  0
  -26.3939   31.9856  -19.8658 N   0  0  0  0  0  0  0  0  0  0  0  0
  -25.5018   32.2039  -17.6183 C   0  0  0  0  0  0  0  0  0  0  0  0
  -25.3400   33.2078  -16.6166 C   0  0  0  0  0  0  0  0  0  0  0  0
  -26.0631   30.6438  -19.9088 C   0  0  0  0  0  0  0  0  0  0  0  0
  -25.1368   30.8765  -17.5716 N   0  0  0  0  0  0  0  0  0  0  0  0
  -24.7196   32.9980  -15.2768 C   0  0  0  0  0  0  0  0  0  0  0  0
  -26.3004   29.9563  -20.8941 O   0  0  0  0  0  0  0  0  0  0  0  0
  -25.3697   30.0309  -18.6440 C   0  0  0  0  0  0  0  0  0  0  0  0
  -25.0468   28.8503  -18.6065 O   0  0  0  0  0  0  0  0  0  0  0  0
  -25.8706   35.3659  -16.5442 H   0  0  0  0  0  0  0  0  0  0  0  0
  -26.8419   32.4130  -20.6635 H   0  0  0  0  0  0  0  0  0  0  0  0
  -24.6901   30.4852  -16.7547 H   0  0  0  0  0  0  0  0  0  0  0  0
  -23.6850   32.6574  -15.3855 H   0  0  0  0  0  0  0  0  0  0  0  0
  -24.7122   33.9223  -14.6898 H   0  0  0  0  0  0  0  0  0  0  0  0
  -25.2775   32.2432  -14.7132 H   0  0  0  0  0  0  0  0  0  0  0  0
  1  2  1  0  0  0  0
  1  3  1  0  0  0  0
  2  4  1  0  0  0  0
  2  5  2  0  0  0  0
  3  6  2  0  0  0  0
  3 13  1  0  0  0  0
  4  7  1  0  0  0  0
  4 14  1  0  0  0  0
  5  8  1  0  0  0  0
  5  6  1  0  0  0  0
  6  9  1  0  0  0  0
  7 10  2  0  0  0  0
  7 11  1  0  0  0  0
  8 11  1  0  0  0  0
  8 15  1  0  0  0  0
  9 16  1  0  0  0  0
  9 17  1  0  0  0  0
  9 18  1  0  0  0  0
 11 12  2  0  0  0  0
M  END
>  <Column 1>
Cc1csc2[nH]c(=O)c(=O)[nH]c12 ZINC000000015867

>  <Total Molweight>
182.203

>  <cLogP>
-0.2767

>  <cLogS>
-2.24

>  <H-Acceptors>
4

>  <H-Donors>
2

>  <Total Surface Area>
126.38

>  <MMFF94 Energy>
40.271

> <Gold.Version>
5.8.1

> <Gold.Id.Protein>
ID|2FQT|mol2

> <Gold.PLP.Fitness>
32.1874

> <Gold.PLP.PLP>
-27.6173

> <Gold.PLP.part.hbond>
-2.0000

> <Gold.PLP.part.metal>
0.0000

> <Gold.PLP.part.buried>
-3.1634

> <Gold.PLP.part.nonpolar>
-23.9263

> <Gold.PLP.part.repulsive>
0.3768

> <Gold.PLP.ligand.clash>
0.0000

> <Gold.PLP.ligand.torsion>
0.0000

> <Gold.PLP.Chemscore.Hbond>
1.5234

> <Gold.PLP.Chemscore.CHOScore>
0.0000

> <Gold.PLP.Chemscore.Metal>
0.0000

> <Gold.Chemscore.Hbonds>
donor molecule, donor type, donor heavy atom, donor atom, acceptor molecule, acceptor atom, score
      L1  H     4    14       P1   954  1.00
      P1  H   966  2177       L1    10  0.52

> <Gold.PLP.Chemscore.Internal.Correction>
0.0000

> <Gold.Protein.RotatedTorsions>
[ 1849  621  620  617 ] final  108.89 input   60.00 | X-H torsion

> <Gold.Protein.ActiveResidues>
 HIS54   GLU57   HIS58   ALA61   PHE62   ILE76   ILE77   ASP78   ILE79   SER80  
 PRO81   GLN125  CYS126  GLY127  GLN128  HIS132  CO701  

> <Gold.Protein.RotatedAtoms>
  -18.0003   28.1529  -13.1116 H   0  0  0  0  0  0  0  0  0  0  0  0  # atno 1849 bound_to 621 
  -19.5260   28.7011  -13.2522 LP  0  0  0  0  0  0  0  0  0  0  0  0  # atno 2431 bound_to 621 
  -19.0617   27.3558  -14.0529 LP  0  0  0  0  0  0  0  0  0  0  0  0  # atno 2432 bound_to 621 

$$$$
Compound 95|DecoysActives|sdf|102|dock10
  -GOLD-   6112412133D 1   1.00000     0.00000

 17 17  0  0  0  0  0  0  0  0  1 V2000
  -26.7138   30.0073  -19.9019 O   0  0  0  0  0  0  0  0  0  0  0  0
  -26.4066   31.0004  -19.2526 C   0  0  0  0  0  0  0  0  0  0  0  0
  -25.6800   30.9277  -18.0991 N   0  0  0  0  0  0  0  0  0  0  0  0
  -26.7717   32.2606  -19.6394 N   0  0  0  0  0  0  0  0  0  0  0  0
  -25.3023   31.9950  -17.3251 C   0  0  0  0  0  0  0  0  0  0  0  0
  -26.4470   33.3921  -18.9404 C   0  0  0  0  0  0  0  0  0  0  0  0
  -24.6469   31.8366  -16.2992 O   0  0  0  0  0  0  0  0  0  0  0  0
  -25.7349   33.3419  -17.8063 C   0  0  0  0  0  0  0  0  0  0  0  0
  -25.4050   34.5257  -17.0906 C   0  0  0  0  0  0  0  0  0  0  0  0
  -25.1263   35.5258  -16.4862 C   0  0  0  0  0  0  0  0  0  0  0  0
  -24.7807   36.7340  -15.7377 C   0  0  0  0  0  0  0  0  0  0  0  0
  -25.3968   30.0115  -17.7895 H   0  0  0  0  0  0  0  0  0  0  0  0
  -27.3115   32.3198  -20.4959 H   0  0  0  0  0  0  0  0  0  0  0  0
  -26.8011   34.3291  -19.3605 H   0  0  0  0  0  0  0  0  0  0  0  0
  -25.6742   37.3286  -15.5247 H   0  0  0  0  0  0  0  0  0  0  0  0
  -24.0851   37.3584  -16.3065 H   0  0  0  0  0  0  0  0  0  0  0  0
  -24.3071   36.4793  -14.7848 H   0  0  0  0  0  0  0  0  0  0  0  0
  1  2  2  0  0  0  0
  2  3  1  0  0  0  0
  2  4  1  0  0  0  0
  3  5  1  0  0  0  0
  3 12  1  0  0  0  0
  4  6  1  0  0  0  0
  4 13  1  0  0  0  0
  5  7  2  0  0  0  0
  5  8  1  0  0  0  0
  6  8  2  0  0  0  0
  6 14  1  0  0  0  0
  8  9  1  0  0  0  0
  9 10  3  0  0  0  0
 10 11  1  0  0  0  0
 11 15  1  0  0  0  0
 11 16  1  0  0  0  0
 11 17  1  0  0  0  0
M  END
>  <Column 1>
CC#Cc1c[nH]c(=O)[nH]c1=O ZINC000000016355

>  <Total Molweight>
150.137

>  <cLogP>
-0.06

>  <cLogS>
-3.562

>  <H-Acceptors>
4

>  <H-Donors>
2

>  <Total Surface Area>
125.19

>  <MMFF94 Energy>
-70.648

> <Gold.Version>
5.8.1

> <Gold.Id.Protein>
ID|2FQT|mol2

> <Gold.PLP.Fitness>
32.9007

> <Gold.PLP.PLP>
-21.2355

> <Gold.PLP.part.hbond>
-2.0000

> <Gold.PLP.part.metal>
-0.8002

> <Gold.PLP.part.buried>
0.1157

> <Gold.PLP.part.nonpolar>
-19.3429

> <Gold.PLP.part.repulsive>
0.6385

> <Gold.PLP.ligand.clash>
0.0000

> <Gold.PLP.ligand.torsion>
0.0000

> <Gold.PLP.Chemscore.Hbond>
1.8640

> <Gold.PLP.Chemscore.CHOScore>
0.2317

> <Gold.PLP.Chemscore.Metal>
0.8963

> <Gold.Chemscore.Hbonds>
donor molecule, donor type, donor heavy atom, donor atom, acceptor molecule, acceptor atom, score
      L1  H     4    13       P1   954  0.86
      P1  H   966  2177       L1     1  1.00
      L1  C     6    14       P1   954  0.23
      P1  M  1222  1222       L1     1  0.90

> <Gold.PLP.Chemscore.Internal.Correction>
0.0000

> <Gold.Protein.RotatedTorsions>
[ 1849  621  620  617 ] final  150.43 input   60.00 | X-H torsion

> <Gold.Protein.ActiveResidues>
 HIS54   GLU57   HIS58   ALA61   PHE62   ILE76   ILE77   ASP78   ILE79   SER80  
 PRO81   GLN125  CYS126  GLY127  GLN128  HIS132  CO701  

> <Gold.Protein.RotatedAtoms>
  -18.0402   27.6204  -13.5061 H   0  0  0  0  0  0  0  0  0  0  0  0  # atno 1849 bound_to 621 
  -18.9497   28.8485  -12.9468 LP  0  0  0  0  0  0  0  0  0  0  0  0  # atno 2431 bound_to 621 
  -19.5978   27.7447  -13.9609 LP  0  0  0  0  0  0  0  0  0  0  0  0  # atno 2432 bound_to 621 

$$$$
Compound 96|DecoysActives|sdf|103|dock2
  -GOLD-   6112412133D 1   1.00000     0.00000

 16 16  0  0  0  0  0  0  0  0  1 V2000
  -23.0060   33.8454  -16.2121 Cl  0  0  0  0  0  0  0  0  0  0  0  0
  -24.6964   33.9654  -16.5712 C   0  0  0  0  0  0  0  0  0  0  0  0
  -25.2578   32.9503  -17.4351 C   0  0  0  0  0  0  0  0  0  0  0  0
  -25.4179   34.9464  -16.0127 C   0  0  0  0  0  0  0  0  0  0  0  0
  -26.0872   33.3446  -18.6154 C   0  0  0  0  0  0  0  0  0  0  0  0
  -25.0714   31.6371  -17.2296 C   0  0  0  0  0  0  0  0  0  0  0  0
  -26.3675   34.5124  -18.8673 O   0  0  0  0  0  0  0  0  0  0  0  0
  -26.5487   32.3207  -19.4004 N   0  0  0  0  0  0  0  0  0  0  0  0
  -25.6009   30.6923  -18.0651 N   0  0  0  0  0  0  0  0  0  0  0  0
  -26.3477   30.9908  -19.1705 C   0  0  0  0  0  0  0  0  0  0  0  0
  -26.8066   30.1185  -19.8989 O   0  0  0  0  0  0  0  0  0  0  0  0
  -24.9573   35.6819  -15.3600 H   0  0  0  0  0  0  0  0  0  0  0  0
  -26.4801   35.0558  -16.2051 H   0  0  0  0  0  0  0  0  0  0  0  0
  -24.4838   31.2568  -16.3986 H   0  0  0  0  0  0  0  0  0  0  0  0
  -27.1043   32.5705  -20.2030 H   0  0  0  0  0  0  0  0  0  0  0  0
  -25.4458   29.7045  -17.8939 H   0  0  0  0  0  0  0  0  0  0  0  0
  1  2  1  0  0  0  0
  2  3  1  0  0  0  0
  2  4  2  0  0  0  0
  3  5  1  0  0  0  0
  3  6  2  0  0  0  0
  4 12  1  0  0  0  0
  4 13  1  0  0  0  0
  5  7  2  0  0  0  0
  5  8  1  0  0  0  0
  6  9  1  0  0  0  0
  6 14  1  0  0  0  0
  8 10  1  0  0  0  0
  8 15  1  0  0  0  0
  9 10  1  0  0  0  0
  9 16  1  0  0  0  0
 10 11  2  0  0  0  0
M  END
>  <Column 1>
C=C(Cl)c1c[nH]c(=O)[nH]c1=O ZINC000000016358

>  <Total Molweight>
172.571

>  <cLogP>
0.1295

>  <cLogS>
-2.276

>  <H-Acceptors>
4

>  <H-Donors>
2

>  <Total Surface Area>
121.3

>  <MMFF94 Energy>
-72.393

> <Gold.Version>
5.8.1

> <Gold.Id.Protein>
ID|2FQT|mol2

> <Gold.PLP.Fitness>
29.7392

> <Gold.PLP.PLP>
-19.7430

> <Gold.PLP.part.hbond>
-2.0000

> <Gold.PLP.part.metal>
-1.0000

> <Gold.PLP.part.buried>
-0.5228

> <Gold.PLP.part.nonpolar>
-17.7409

> <Gold.PLP.part.repulsive>
0.5240

> <Gold.PLP.ligand.clash>
0.0000

> <Gold.PLP.ligand.torsion>
0.9107

> <Gold.PLP.Chemscore.Hbond>
2.0000

> <Gold.PLP.Chemscore.CHOScore>
0.0000

> <Gold.PLP.Chemscore.Metal>
0.9693

> <Gold.Chemscore.Hbonds>
donor molecule, donor type, donor heavy atom, donor atom, acceptor molecule, acceptor atom, score
      L1  H     8    15       P1   954  1.00
      P1  H   966  2177       L1    11  1.00
      P1  M  1222  1222       L1    11  0.97

> <Gold.PLP.Chemscore.Internal.Correction>
0.0014

> <Gold.Protein.RotatedTorsions>
[ 1849  621  620  617 ] final  102.32 input   60.00 | X-H torsion

> <Gold.Protein.ActiveResidues>
 HIS54   GLU57   HIS58   ALA61   PHE62   ILE76   ILE77   ASP78   ILE79   SER80  
 PRO81   GLN125  CYS126  GLY127  GLN128  HIS132  CO701  

> <Gold.Protein.RotatedAtoms>
  -18.0364   28.2406  -13.0614 H   0  0  0  0  0  0  0  0  0  0  0  0  # atno 1849 bound_to 621 
  -19.5922   28.6442  -13.3159 LP  0  0  0  0  0  0  0  0  0  0  0  0  # atno 2431 bound_to 621 
  -18.9591   27.3244  -14.0397 LP  0  0  0  0  0  0  0  0  0  0  0  0  # atno 2432 bound_to 621 

$$$$
Compound 97|DecoysActives|sdf|104|dock2
  -GOLD-   6112412133D 1   1.00000     0.00000

 30 31  0  0  0  0  0  0  0  0  3 V2000
  -24.7225   33.0321  -15.0187 F   0  0  0  0  0  0  0  0  0  0  0  0
  -25.1294   33.0792  -16.2998 C   0  0  0  0  0  0  0  0  0  0  0  0
  -25.8599   34.1655  -16.7878 C   0  0  0  0  0  0  0  0  0  0  0  0
  -24.8504   31.9853  -17.1166 C   0  0  0  0  0  0  0  0  0  0  0  0
  -26.3238   34.1491  -18.0597 N   0  0  0  0  0  0  0  0  0  0  0  0
  -26.1670   35.2718  -16.0049 N   0  0  0  0  0  0  0  0  0  0  0  0
  -25.3066   32.0053  -18.4342 N   0  3  0  0  0  0  0  0  0  0  0  0
  -24.0756   30.8998  -16.6718 N   0  0  0  0  0  0  0  0  0  0  0  0
  -26.0542   33.1042  -18.8813 C   0  0  0  0  0  0  0  0  0  0  0  0
  -25.1024   36.0709  -15.3938 C   0  0  0  0  0  0  0  0  0  0  0  0
  -27.3981   36.0131  -16.2944 C   0  0  0  0  0  0  0  0  0  0  0  0
  -25.0532   31.0069  -19.2194 O   0  5  0  0  0  0  0  0  0  0  0  0
  -26.5319   33.1380  -20.1766 N   0  0  0  0  0  0  0  0  0  0  0  0
  -24.7423   37.2327  -16.3250 C   0  0  0  0  0  0  0  0  0  0  0  0
  -27.0977   37.1750  -17.2426 C   0  0  0  0  0  0  0  0  0  0  0  0
  -25.9774   38.0587  -16.6907 C   0  0  0  0  0  0  0  0  0  0  0  0
  -23.1307   30.8006  -17.0184 H   0  0  0  0  0  0  0  0  0  0  0  0
  -24.2709   30.6549  -15.6991 H   0  0  0  0  0  0  0  0  0  0  0  0
  -25.4657   36.4702  -14.4384 H   0  0  0  0  0  0  0  0  0  0  0  0
  -24.1983   35.5036  -15.1617 H   0  0  0  0  0  0  0  0  0  0  0  0
  -27.7913   36.4141  -15.3512 H   0  0  0  0  0  0  0  0  0  0  0  0
  -28.1927   35.3731  -16.6960 H   0  0  0  0  0  0  0  0  0  0  0  0
  -27.0679   33.9282  -20.4913 H   0  0  0  0  0  0  0  0  0  0  0  0
  -26.3018   32.3416  -20.7603 H   0  0  0  0  0  0  0  0  0  0  0  0
  -23.9978   37.8761  -15.8435 H   0  0  0  0  0  0  0  0  0  0  0  0
  -24.2861   36.8409  -17.2427 H   0  0  0  0  0  0  0  0  0  0  0  0
  -26.8010   36.7902  -18.2257 H   0  0  0  0  0  0  0  0  0  0  0  0
  -28.0021   37.7752  -17.3920 H   0  0  0  0  0  0  0  0  0  0  0  0
  -25.7089   38.8228  -17.4286 H   0  0  0  0  0  0  0  0  0  0  0  0
  -26.3374   38.5862  -15.7989 H   0  0  0  0  0  0  0  0  0  0  0  0
  1  2  1  0  0  0  0
  2  3  2  0  0  0  0
  2  4  1  0  0  0  0
  3  5  1  0  0  0  0
  3  6  1  0  0  0  0
  4  7  2  0  0  0  0
  4  8  1  0  0  0  0
  5  9  2  0  0  0  0
  6 10  1  0  0  0  0
  6 11  1  0  0  0  0
  7 12  1  0  0  0  0
  7  9  1  0  0  0  0
  8 17  1  0  0  0  0
  8 18  1  0  0  0  0
  9 13  1  0  0  0  0
 10 14  1  0  0  0  0
 10 19  1  0  0  0  0
 10 20  1  0  0  0  0
 11 15  1  0  0  0  0
 11 21  1  0  0  0  0
 11 22  1  0  0  0  0
 13 23  1  0  0  0  0
 13 24  1  0  0  0  0
 14 16  1  0  0  0  0
 14 25  1  0  0  0  0
 14 26  1  0  0  0  0
 15 16  1  0  0  0  0
 15 27  1  0  0  0  0
 15 28  1  0  0  0  0
 16 29  1  0  0  0  0
 16 30  1  0  0  0  0
M  CHG  1   7   1
M  CHG  1  12  -1
M  END
>  <Column 1>
Nc1nc(N2CCCCC2)c(F)c(N)[n+]1[O-] ZINC000000016415

>  <Total Molweight>
227.242

>  <cLogP>
0.2724

>  <cLogS>
-5.775

>  <H-Acceptors>
5

>  <H-Donors>
2

>  <Total Surface Area>
163.06

>  <MMFF94 Energy>
92.268

> <Gold.Version>
5.8.1

> <Gold.Id.Protein>
ID|2FQT|mol2

> <Gold.PLP.Fitness>
43.3859

> <Gold.PLP.PLP>
-42.9002

> <Gold.PLP.part.hbond>
0.7530

> <Gold.PLP.part.metal>
0.0000

> <Gold.PLP.part.buried>
-5.0897

> <Gold.PLP.part.nonpolar>
-38.6723

> <Gold.PLP.part.repulsive>
0.1567

> <Gold.PLP.ligand.clash>
0.0000

> <Gold.PLP.ligand.torsion>
0.7118

> <Gold.PLP.Chemscore.Hbond>
0.2400

> <Gold.PLP.Chemscore.CHOScore>
0.0000

> <Gold.PLP.Chemscore.Metal>
0.0000

> <Gold.Chemscore.Hbonds>
donor molecule, donor type, donor heavy atom, donor atom, acceptor molecule, acceptor atom, score
      L1  H    13    23       P1   954  0.24

> <Gold.PLP.Chemscore.Internal.Correction>
1.1894

> <Gold.Protein.RotatedTorsions>
[ 1849  621  620  617 ] final -107.71 input   60.00 | X-H torsion

> <Gold.Protein.ActiveResidues>
 HIS54   GLU57   HIS58   ALA61   PHE62   ILE76   ILE77   ASP78   ILE79   SER80  
 PRO81   GLN125  CYS126  GLY127  GLN128  HIS132  CO701  

> <Gold.Protein.RotatedAtoms>
  -19.3934   27.5423  -14.0317 H   0  0  0  0  0  0  0  0  0  0  0  0  # atno 1849 bound_to 621 
  -17.9584   27.8394  -13.3242 LP  0  0  0  0  0  0  0  0  0  0  0  0  # atno 2431 bound_to 621 
  -19.2263   28.8325  -13.0542 LP  0  0  0  0  0  0  0  0  0  0  0  0  # atno 2432 bound_to 621 

$$$$
Compound 98|DecoysActives|sdf|105|dock3
  -GOLD-   6112412133D 1   1.00000     0.00000

 31 32  0  0  0  0  0  0  0  0  1 V2000
  -26.6138   32.7653  -19.2640 O   0  0  0  0  0  0  0  0  0  0  0  0
  -26.1204   33.2222  -18.0669 C   0  0  0  0  0  0  0  0  0  0  0  0
  -25.8145   31.5834  -19.5097 C   0  0  0  0  0  0  0  0  0  0  0  0
  -25.3161   32.3052  -17.4013 C   0  0  0  0  0  0  0  0  0  0  0  0
  -26.3841   34.4831  -17.5687 C   0  0  0  0  0  0  0  0  0  0  0  0
  -25.2957   31.0250  -18.1646 C   0  0  1  0  0  0  0  0  0  0  0  0
  -24.6891   32.6533  -16.2147 C   0  0  0  0  0  0  0  0  0  0  0  0
  -25.7840   34.8421  -16.3634 C   0  0  0  0  0  0  0  0  0  0  0  0
  -26.2265   30.0072  -17.6415 N   0  0  0  0  0  0  0  0  0  0  0  0
  -23.8659   31.7157  -15.6620 O   0  0  0  0  0  0  0  0  0  0  0  0
  -24.9348   33.9327  -15.7001 C   0  0  0  0  0  0  0  0  0  0  0  0
  -25.9261   36.0479  -15.7277 O   0  0  0  0  0  0  0  0  0  0  0  0
  -26.5002   29.1017  -18.7525 O   0  0  0  0  0  0  0  0  0  0  0  0
  -23.1360   32.0986  -14.5041 C   0  0  0  0  0  0  0  0  0  0  0  0
  -26.9962   36.8778  -16.1637 C   0  0  0  0  0  0  0  0  0  0  0  0
  -25.6120   27.9910  -18.6525 C   0  0  0  0  0  0  0  0  0  0  0  0
  -24.9752   31.8801  -20.1539 H   0  0  0  0  0  0  0  0  0  0  0  0
  -26.4121   30.8568  -20.0719 H   0  0  0  0  0  0  0  0  0  0  0  0
  -27.0294   35.1448  -18.1309 H   0  0  0  0  0  0  0  0  0  0  0  0
  -24.2891   30.6134  -18.2977 H   0  0  0  0  0  0  0  0  0  0  0  0
  -27.1432   30.4342  -17.5107 H   0  0  0  0  0  0  0  0  0  0  0  0
  -24.4763   34.2652  -14.7740 H   0  0  0  0  0  0  0  0  0  0  0  0
  -22.4219   32.8960  -14.7344 H   0  0  0  0  0  0  0  0  0  0  0  0
  -22.5650   31.2284  -14.1667 H   0  0  0  0  0  0  0  0  0  0  0  0
  -23.8083   32.3907  -13.6906 H   0  0  0  0  0  0  0  0  0  0  0  0
  -26.8583   37.1832  -17.2062 H   0  0  0  0  0  0  0  0  0  0  0  0
  -26.9888   37.7828  -15.5485 H   0  0  0  0  0  0  0  0  0  0  0  0
  -27.9633   36.3850  -16.0194 H   0  0  0  0  0  0  0  0  0  0  0  0
  -24.5684   28.3201  -18.6739 H   0  0  0  0  0  0  0  0  0  0  0  0
  -25.8114   27.4284  -17.7350 H   0  0  0  0  0  0  0  0  0  0  0  0
  -25.7876   27.3353  -19.5095 H   0  0  0  0  0  0  0  0  0  0  0  0
  1  2  1  0  0  0  0
  1  3  1  0  0  0  0
  2  4  2  0  0  0  0
  2  5  1  0  0  0  0
  3  6  1  0  0  0  0
  3 17  1  0  0  0  0
  3 18  1  0  0  0  0
  4  7  1  0  0  0  0
  4  6  1  0  0  0  0
  5  8  2  0  0  0  0
  5 19  1  0  0  0  0
  6  9  1  0  0  0  0
  6 20  1  0  0  0  0
  7 10  1  0  0  0  0
  7 11  2  0  0  0  0
  8 12  1  0  0  0  0
  8 11  1  0  0  0  0
  9 13  1  0  0  0  0
  9 21  1  0  0  0  0
 10 14  1  0  0  0  0
 11 22  1  0  0  0  0
 12 15  1  0  0  0  0
 13 16  1  0  0  0  0
 14 23  1  0  0  0  0
 14 24  1  0  0  0  0
 14 25  1  0  0  0  0
 15 26  1  0  0  0  0
 15 27  1  0  0  0  0
 15 28  1  0  0  0  0
 16 29  1  0  0  0  0
 16 30  1  0  0  0  0
 16 31  1  0  0  0  0
M  END
>  <Column 1>
CON[C@H]1COc2cc(OC)cc(OC)c21 ZINC000000017230

>  <Total Molweight>
225.243

>  <cLogP>
0.7083

>  <cLogS>
-1.75

>  <H-Acceptors>
5

>  <H-Donors>
1

>  <Total Surface Area>
174.26

>  <MMFF94 Energy>
61.28

> <Gold.Version>
5.8.1

> <Gold.Id.Protein>
ID|2FQT|mol2

> <Gold.PLP.Fitness>
47.7315

> <Gold.PLP.PLP>
-39.8943

> <Gold.PLP.part.hbond>
-0.4926

> <Gold.PLP.part.metal>
-2.0000

> <Gold.PLP.part.buried>
-7.8560

> <Gold.PLP.part.nonpolar>
-31.8856

> <Gold.PLP.part.repulsive>
1.8150

> <Gold.PLP.ligand.clash>
0.0000

> <Gold.PLP.ligand.torsion>
0.5943

> <Gold.PLP.Chemscore.Hbond>
1.0000

> <Gold.PLP.Chemscore.CHOScore>
0.0000

> <Gold.PLP.Chemscore.Metal>
0.9951

> <Gold.Chemscore.Hbonds>
donor molecule, donor type, donor heavy atom, donor atom, acceptor molecule, acceptor atom, score
      L1  H     9    21       P1   437  1.00
      P1  M  1222  1222       L1     9  1.00

> <Gold.PLP.Chemscore.Internal.Correction>
0.0553

> <Gold.Protein.RotatedTorsions>
[ 1849  621  620  617 ] final   82.71 input   60.00 | X-H torsion

> <Gold.Protein.ActiveResidues>
 HIS54   GLU57   HIS58   ALA61   PHE62   ILE76   ILE77   ASP78   ILE79   SER80  
 PRO81   GLN125  CYS126  GLY127  GLN128  HIS132  CO701  

> <Gold.Protein.RotatedAtoms>
  -18.2059   28.4846  -12.9458 H   0  0  0  0  0  0  0  0  0  0  0  0  # atno 1849 bound_to 621 
  -19.7297   28.4330  -13.5146 LP  0  0  0  0  0  0  0  0  0  0  0  0  # atno 2431 bound_to 621 
  -18.6508   27.2899  -13.9573 LP  0  0  0  0  0  0  0  0  0  0  0  0  # atno 2432 bound_to 621 

$$$$
Compound 99|DecoysActives|sdf|106|dock3
  -GOLD-   6112412133D 1   1.00000     0.00000

 38 40  0  0  0  0  0  0  0  0  3 V2000
  -26.8622   28.7482  -18.2035 O   0  0  0  0  0  0  0  0  0  0  0  0
  -26.4431   29.7420  -18.8105 N   0  3  0  0  0  0  0  0  0  0  0  0
  -26.8036   30.1089  -19.9363 O   0  5  0  0  0  0  0  0  0  0  0  0
  -25.4125   30.5374  -18.1552 C   0  0  0  0  0  0  0  0  0  0  0  0
  -25.4385   31.9519  -18.2049 C   0  0  0  0  0  0  0  0  0  0  0  0
  -24.4178   29.8241  -17.4765 C   0  0  0  0  0  0  0  0  0  0  0  0
  -24.4629   32.6688  -17.4555 C   0  0  0  0  0  0  0  0  0  0  0  0
  -26.4792   32.6832  -19.0200 C   0  0  0  0  0  0  0  0  0  0  0  0
  -23.4349   30.5304  -16.8002 C   0  0  0  0  0  0  0  0  0  0  0  0
  -23.4579   31.9325  -16.7747 C   0  0  0  0  0  0  0  0  0  0  0  0
  -24.4446   34.1996  -17.4658 C   0  0  0  0  0  0  0  0  0  0  0  0
  -22.4219   29.8278  -16.1414 N   0  0  0  0  0  0  0  0  0  0  0  0
  -22.4659   32.5998  -16.0441 N   0  0  0  0  0  0  0  0  0  0  0  0
  -25.4616   34.8237  -16.6068 N   0  0  0  0  0  0  0  0  0  0  0  0
  -21.4091   30.4387  -15.4350 C   0  0  0  0  0  0  0  0  0  0  0  0
  -21.4500   31.9814  -15.3562 C   0  0  0  0  0  0  0  0  0  0  0  0
  -26.6974   35.1527  -17.3293 C   0  0  0  0  0  0  0  0  0  0  0  0
  -25.0064   36.1065  -16.0604 C   0  0  0  0  0  0  0  0  0  0  0  0
  -20.5258   29.7893  -14.8914 O   0  0  0  0  0  0  0  0  0  0  0  0
  -20.6240   32.6065  -14.7050 O   0  0  0  0  0  0  0  0  0  0  0  0
  -27.4046   36.1029  -16.3745 C   0  0  0  0  0  0  0  0  0  0  0  0
  -26.2921   36.7351  -15.5451 C   0  0  0  0  0  0  0  0  0  0  0  0
  -24.4187   28.7365  -17.4810 H   0  0  0  0  0  0  0  0  0  0  0  0
  -26.0324   33.5282  -19.5539 H   0  0  0  0  0  0  0  0  0  0  0  0
  -27.2817   33.0427  -18.3688 H   0  0  0  0  0  0  0  0  0  0  0  0
  -26.9158   32.0576  -19.8039 H   0  0  0  0  0  0  0  0  0  0  0  0
  -24.5590   34.5923  -18.4814 H   0  0  0  0  0  0  0  0  0  0  0  0
  -23.4451   34.4931  -17.1187 H   0  0  0  0  0  0  0  0  0  0  0  0
  -22.3792   28.8175  -16.1701 H   0  0  0  0  0  0  0  0  0  0  0  0
  -22.5446   33.6105  -15.9342 H   0  0  0  0  0  0  0  0  0  0  0  0
  -27.3103   34.2703  -17.5377 H   0  0  0  0  0  0  0  0  0  0  0  0
  -26.4898   35.6661  -18.2769 H   0  0  0  0  0  0  0  0  0  0  0  0
  -24.2736   35.9745  -15.2583 H   0  0  0  0  0  0  0  0  0  0  0  0
  -24.5654   36.7445  -16.8370 H   0  0  0  0  0  0  0  0  0  0  0  0
  -28.0904   35.5548  -15.7177 H   0  0  0  0  0  0  0  0  0  0  0  0
  -27.9869   36.8561  -16.9147 H   0  0  0  0  0  0  0  0  0  0  0  0
  -26.4423   36.5020  -14.4845 H   0  0  0  0  0  0  0  0  0  0  0  0
  -26.2764   37.8246  -15.6509 H   0  0  0  0  0  0  0  0  0  0  0  0
  1  2  2  0  0  0  0
  2  3  1  0  0  0  0
  2  4  1  0  0  0  0
  4  5  2  0  0  0  0
  4  6  1  0  0  0  0
  5  7  1  0  0  0  0
  5  8  1  0  0  0  0
  6  9  2  0  0  0  0
  6 23  1  0  0  0  0
  7 10  2  0  0  0  0
  7 11  1  0  0  0  0
  8 24  1  0  0  0  0
  8 25  1  0  0  0  0
  8 26  1  0  0  0  0
  9 12  1  0  0  0  0
  9 10  1  0  0  0  0
 10 13  1  0  0  0  0
 11 14  1  0  0  0  0
 11 27  1  0  0  0  0
 11 28  1  0  0  0  0
 12 15  1  0  0  0  0
 12 29  1  0  0  0  0
 13 16  1  0  0  0  0
 13 30  1  0  0  0  0
 14 17  1  0  0  0  0
 14 18  1  0  0  0  0
 15 19  2  0  0  0  0
 15 16  1  0  0  0  0
 16 20  2  0  0  0  0
 17 21  1  0  0  0  0
 17 31  1  0  0  0  0
 17 32  1  0  0  0  0
 18 22  1  0  0  0  0
 18 33  1  0  0  0  0
 18 34  1  0  0  0  0
 21 22  1  0  0  0  0
 21 35  1  0  0  0  0
 21 36  1  0  0  0  0
 22 37  1  0  0  0  0
 22 38  1  0  0  0  0
M  CHG  1   2   1
M  CHG  1   3  -1
M  END
>  <Column 1>
Cc1c([N+](=O)[O-])cc2[nH]c(=O)c(=O)[nH]c2c1CN1CCCC1 ZINC000000017349

>  <Total Molweight>
304.305

>  <cLogP>
-0.7584

>  <cLogS>
-2.85

>  <H-Acceptors>
7

>  <H-Donors>
2

>  <Total Surface Area>
219.71

>  <MMFF94 Energy>
95.773

> <Gold.Version>
5.8.1

> <Gold.Id.Protein>
ID|2FQT|mol2

> <Gold.PLP.Fitness>
54.1510

> <Gold.PLP.PLP>
-38.0177

> <Gold.PLP.part.hbond>
-3.0000

> <Gold.PLP.part.metal>
-1.9368

> <Gold.PLP.part.buried>
0.7868

> <Gold.PLP.part.nonpolar>
-36.0759

> <Gold.PLP.part.repulsive>
0.5887

> <Gold.PLP.ligand.clash>
0.0000

> <Gold.PLP.ligand.torsion>
1.2811

> <Gold.PLP.Chemscore.Hbond>
1.9760

> <Gold.PLP.Chemscore.CHOScore>
0.0000

> <Gold.PLP.Chemscore.Metal>
1.9399

> <Gold.Chemscore.Hbonds>
donor molecule, donor type, donor heavy atom, donor atom, acceptor molecule, acceptor atom, score
      P1  H   621  1849       L1    19  0.98
      P1  H   966  2177       L1     3  1.00
      P1  M  1222  1222       L1     1  1.00
      P1  M  1222  1222       L1     3  0.94

> <Gold.PLP.Chemscore.Internal.Correction>
1.1280

> <Gold.Protein.RotatedTorsions>
[ 1849  621  620  617 ] final  -42.88 input   60.00 | X-H torsion

> <Gold.Protein.ActiveResidues>
 HIS54   GLU57   HIS58   ALA61   PHE62   ILE76   ILE77   ASP78   ILE79   SER80  
 PRO81   GLN125  CYS126  GLY127  GLN128  HIS132  CO701  

> <Gold.Protein.RotatedAtoms>
  -19.7453   28.3605  -13.5689 H   0  0  0  0  0  0  0  0  0  0  0  0  # atno 1849 bound_to 621 
  -18.5658   27.2968  -13.9229 LP  0  0  0  0  0  0  0  0  0  0  0  0  # atno 2431 bound_to 621 
  -18.2645   28.5511  -12.9216 LP  0  0  0  0  0  0  0  0  0  0  0  0  # atno 2432 bound_to 621 

$$$$
Compound 100|DecoysActives|sdf|107|dock4
  -GOLD-   6112412133D 1   1.00000     0.00000

 23 25  0  0  0  0  0  0  0  0  1 V2000
  -26.7723   34.5225  -18.8472 N   0  0  0  0  0  0  0  0  0  0  0  0
  -26.2544   33.3711  -18.5161 C   0  0  0  0  0  0  0  0  0  0  0  0
  -26.4828   35.3351  -17.7598 C   0  0  0  0  0  0  0  0  0  0  0  0
  -26.1002   32.1470  -19.0547 N   0  0  0  0  0  0  0  0  0  0  0  0
  -25.6475   33.4142  -17.2998 N   0  0  0  0  0  0  0  0  0  0  0  0
  -25.7628   34.6489  -16.7700 C   0  0  0  0  0  0  0  0  0  0  0  0
  -26.8001   36.6856  -17.5507 C   0  0  0  0  0  0  0  0  0  0  0  0
  -26.3058   32.0262  -20.4240 N   0  0  0  0  0  0  0  0  0  0  0  0
  -25.1638   31.3558  -18.2527 C   0  0  0  0  0  0  0  0  0  0  0  0
  -25.0140   32.1630  -16.9423 C   0  0  0  0  0  0  0  0  0  0  0  0
  -25.3373   35.2398  -15.5794 C   0  0  0  0  0  0  0  0  0  0  0  0
  -26.3858   37.3002  -16.3616 C   0  0  0  0  0  0  0  0  0  0  0  0
  -25.6678   36.5877  -15.3968 C   0  0  0  0  0  0  0  0  0  0  0  0
  -27.3556   37.2346  -18.3027 H   0  0  0  0  0  0  0  0  0  0  0  0
  -27.0951   32.6169  -20.7039 H   0  0  0  0  0  0  0  0  0  0  0  0
  -26.6434   31.0765  -20.6176 H   0  0  0  0  0  0  0  0  0  0  0  0
  -24.1954   31.2742  -18.7606 H   0  0  0  0  0  0  0  0  0  0  0  0
  -25.5461   30.3478  -18.0621 H   0  0  0  0  0  0  0  0  0  0  0  0
  -25.5766   31.7224  -16.1146 H   0  0  0  0  0  0  0  0  0  0  0  0
  -23.9718   32.3422  -16.6684 H   0  0  0  0  0  0  0  0  0  0  0  0
  -24.7817   34.6891  -14.8289 H   0  0  0  0  0  0  0  0  0  0  0  0
  -26.6276   38.3465  -16.1903 H   0  0  0  0  0  0  0  0  0  0  0  0
  -25.3594   37.0922  -14.4830 H   0  0  0  0  0  0  0  0  0  0  0  0
  1  2  2  0  0  0  0
  1  3  1  0  0  0  0
  2  4  1  0  0  0  0
  2  5  1  0  0  0  0
  3  6  2  0  0  0  0
  3  7  1  0  0  0  0
  4  8  1  0  0  0  0
  4  9  1  0  0  0  0
  5 10  1  0  0  0  0
  5  6  1  0  0  0  0
  6 11  1  0  0  0  0
  7 12  2  0  0  0  0
  7 14  1  0  0  0  0
  8 15  1  0  0  0  0
  8 16  1  0  0  0  0
  9 10  1  0  0  0  0
  9 17  1  0  0  0  0
  9 18  1  0  0  0  0
 10 19  1  0  0  0  0
 10 20  1  0  0  0  0
 11 13  2  0  0  0  0
 11 21  1  0  0  0  0
 12 13  1  0  0  0  0
 12 22  1  0  0  0  0
 13 23  1  0  0  0  0
M  END
>  <Column 1>
NN1CCn2c1nc1ccccc12 ZINC000000017481

>  <Total Molweight>
174.206

>  <cLogP>
1.0881

>  <cLogS>
-1.236

>  <H-Acceptors>
4

>  <H-Donors>
1

>  <Total Surface Area>
128.66

>  <MMFF94 Energy>
48.555

> <Gold.Version>
5.8.1

> <Gold.Id.Protein>
ID|2FQT|mol2

> <Gold.PLP.Fitness>
38.1555

> <Gold.PLP.PLP>
-35.1555

> <Gold.PLP.part.hbond>
-1.0000

> <Gold.PLP.part.metal>
0.0000

> <Gold.PLP.part.buried>
-3.9930

> <Gold.PLP.part.nonpolar>
-31.0537

> <Gold.PLP.part.repulsive>
0.1148

> <Gold.PLP.ligand.clash>
0.0000

> <Gold.PLP.ligand.torsion>
0.0000

> <Gold.PLP.Chemscore.Hbond>
1.0000

> <Gold.PLP.Chemscore.CHOScore>
0.0000

> <Gold.PLP.Chemscore.Metal>
0.0000

> <Gold.Chemscore.Hbonds>
donor molecule, donor type, donor heavy atom, donor atom, acceptor molecule, acceptor atom, score
      L1  H     8    15       P1   954  1.00

> <Gold.PLP.Chemscore.Internal.Correction>
0.0000

> <Gold.Protein.RotatedTorsions>
[ 1849  621  620  617 ] final  124.54 input   60.00 | X-H torsion

> <Gold.Protein.ActiveResidues>
 HIS54   GLU57   HIS58   ALA61   PHE62   ILE76   ILE77   ASP78   ILE79   SER80  
 PRO81   GLN125  CYS126  GLY127  GLN128  HIS132  CO701  

> <Gold.Protein.RotatedAtoms>
  -17.9604   27.9417  -13.2487 H   0  0  0  0  0  0  0  0  0  0  0  0  # atno 1849 bound_to 621 
  -19.3349   28.8022  -13.1136 LP  0  0  0  0  0  0  0  0  0  0  0  0  # atno 2431 bound_to 621 
  -19.2930   27.4674  -14.0533 LP  0  0  0  0  0  0  0  0  0  0  0  0  # atno 2432 bound_to 621 

$$$$
Compound 101|DecoysActives|sdf|108|dock5
  -GOLD-   6112412133D 1   1.00000     0.00000

 37 39  0  0  0  0  0  0  0  0  1 V2000
  -26.9796   36.9482  -15.3382 O   0  0  0  0  0  0  0  0  0  0  0  0
  -26.7767   36.7044  -16.5307 C   0  0  0  0  0  0  0  0  0  0  0  0
  -26.3553   35.4277  -16.9142 N   0  0  0  0  0  0  0  0  0  0  0  0
  -26.9777   37.7391  -17.5362 C   0  0  0  0  0  0  0  0  0  0  0  0
  -26.2954   35.1115  -18.3438 C   0  0  0  0  0  0  0  0  0  0  0  0
  -25.8964   34.3758  -15.9977 C   0  0  0  0  0  0  0  0  0  0  0  0
  -26.1420   37.8709  -18.6145 O   0  0  0  0  0  0  0  0  0  0  0  0
  -27.9197   38.7545  -17.5773 C   0  0  0  0  0  0  0  0  0  0  0  0
  -26.5410   33.6233  -18.6438 C   0  0  0  0  0  0  0  0  0  0  0  0
  -25.0111   33.3060  -16.6667 C   0  0  0  0  0  0  0  0  0  0  0  0
  -26.5677   38.9384  -19.3360 C   0  0  0  0  0  0  0  0  0  0  0  0
  -27.6613   39.5171  -18.7403 C   0  0  0  0  0  0  0  0  0  0  0  0
  -25.6443   32.7739  -17.8671 N   0  0  0  0  0  0  0  0  0  0  0  0
  -25.3704   31.4977  -18.2902 C   0  0  0  0  0  0  0  0  0  0  0  0
  -26.3812   30.7339  -18.7299 N   0  0  0  0  0  0  0  0  0  0  0  0
  -24.0995   31.0617  -18.2485 N   0  0  0  0  0  0  0  0  0  0  0  0
  -26.0834   29.4883  -19.1375 C   0  0  0  0  0  0  0  0  0  0  0  0
  -23.8499   29.8078  -18.6683 C   0  0  0  0  0  0  0  0  0  0  0  0
  -27.0849   28.6551  -19.6006 O   0  0  0  0  0  0  0  0  0  0  0  0
  -24.8193   28.9619  -19.1308 C   0  0  0  0  0  0  0  0  0  0  0  0
  -26.8169   27.2761  -19.3666 C   0  0  0  0  0  0  0  0  0  0  0  0
  -27.0191   35.7193  -18.8978 H   0  0  0  0  0  0  0  0  0  0  0  0
  -25.2943   35.4019  -18.6862 H   0  0  0  0  0  0  0  0  0  0  0  0
  -26.7959   33.8981  -15.5913 H   0  0  0  0  0  0  0  0  0  0  0  0
  -25.3368   34.8276  -15.1727 H   0  0  0  0  0  0  0  0  0  0  0  0
  -28.6957   38.9130  -16.8400 H   0  0  0  0  0  0  0  0  0  0  0  0
  -27.5785   33.3653  -18.3991 H   0  0  0  0  0  0  0  0  0  0  0  0
  -26.4006   33.4767  -19.7217 H   0  0  0  0  0  0  0  0  0  0  0  0
  -24.8222   32.5258  -15.9197 H   0  0  0  0  0  0  0  0  0  0  0  0
  -24.0446   33.7464  -16.9406 H   0  0  0  0  0  0  0  0  0  0  0  0
  -25.9965   39.1584  -20.2273 H   0  0  0  0  0  0  0  0  0  0  0  0
  -28.1986   40.3859  -19.0941 H   0  0  0  0  0  0  0  0  0  0  0  0
  -22.8104   29.4998  -18.6172 H   0  0  0  0  0  0  0  0  0  0  0  0
  -24.6081   27.9576  -19.4650 H   0  0  0  0  0  0  0  0  0  0  0  0
  -27.6573   26.7010  -19.7668 H   0  0  0  0  0  0  0  0  0  0  0  0
  -25.9118   26.9527  -19.8926 H   0  0  0  0  0  0  0  0  0  0  0  0
  -26.7472   27.0615  -18.2944 H   0  0  0  0  0  0  0  0  0  0  0  0
  1  2  2  0  0  0  0
  2  3  1  0  0  0  0
  2  4  1  0  0  0  0
  3  5  1  0  0  0  0
  3  6  1  0  0  0  0
  4  7  1  0  0  0  0
  4  8  2  0  0  0  0
  5  9  1  0  0  0  0
  5 22  1  0  0  0  0
  5 23  1  0  0  0  0
  6 10  1  0  0  0  0
  6 24  1  0  0  0  0
  6 25  1  0  0  0  0
  7 11  1  0  0  0  0
  8 12  1  0  0  0  0
  8 26  1  0  0  0  0
  9 13  1  0  0  0  0
  9 27  1  0  0  0  0
  9 28  1  0  0  0  0
 10 13  1  0  0  0  0
 10 29  1  0  0  0  0
 10 30  1  0  0  0  0
 11 12  2  0  0  0  0
 11 31  1  0  0  0  0
 12 32  1  0  0  0  0
 13 14  1  0  0  0  0
 14 15  2  0  0  0  0
 14 16  1  0  0  0  0
 15 17  1  0  0  0  0
 16 18  2  0  0  0  0
 17 19  1  0  0  0  0
 17 20  2  0  0  0  0
 18 20  1  0  0  0  0
 18 33  1  0  0  0  0
 19 21  1  0  0  0  0
 20 34  1  0  0  0  0
 21 35  1  0  0  0  0
 21 36  1  0  0  0  0
 21 37  1  0  0  0  0
M  END
>  <Column 1>
COc1ccnc(N2CCN(C(=O)c3ccco3)CC2)n1 ZINC000000017599

>  <Total Molweight>
288.306

>  <cLogP>
1.2149

>  <cLogS>
-2.165

>  <H-Acceptors>
7

>  <H-Donors>
0

>  <Total Surface Area>
222.38

>  <MMFF94 Energy>
-33.148

> <Gold.Version>
5.8.1

> <Gold.Id.Protein>
ID|2FQT|mol2

> <Gold.PLP.Fitness>
50.0625

> <Gold.PLP.PLP>
-42.5771

> <Gold.PLP.part.hbond>
-1.0000

> <Gold.PLP.part.metal>
-2.0000

> <Gold.PLP.part.buried>
-3.1737

> <Gold.PLP.part.nonpolar>
-38.0450

> <Gold.PLP.part.repulsive>
0.7544

> <Gold.PLP.ligand.clash>
4.4606

> <Gold.PLP.ligand.torsion>
1.6529

> <Gold.PLP.Chemscore.Hbond>
1.0000

> <Gold.PLP.Chemscore.CHOScore>
0.0000

> <Gold.PLP.Chemscore.Metal>
1.9902

> <Gold.Chemscore.Hbonds>
donor molecule, donor type, donor heavy atom, donor atom, acceptor molecule, acceptor atom, score
      P1  H   966  2177       L1    19  1.00
      P1  M  1222  1222       L1    15  1.00
      P1  M  1222  1222       L1    19  1.00

> <Gold.PLP.Chemscore.Internal.Correction>
0.3108

> <Gold.Protein.RotatedTorsions>
[ 1849  621  620  617 ] final   78.71 input   60.00 | X-H torsion

> <Gold.Protein.ActiveResidues>
 HIS54   GLU57   HIS58   ALA61   PHE62   ILE76   ILE77   ASP78   ILE79   SER80  
 PRO81   GLN125  CYS126  GLY127  GLN128  HIS132  CO701  

> <Gold.Protein.RotatedAtoms>
  -18.2507   28.5293  -12.9294 H   0  0  0  0  0  0  0  0  0  0  0  0  # atno 1849 bound_to 621 
  -19.7458   28.3838  -13.5554 LP  0  0  0  0  0  0  0  0  0  0  0  0  # atno 2431 bound_to 621 
  -18.5897   27.2941  -13.9331 LP  0  0  0  0  0  0  0  0  0  0  0  0  # atno 2432 bound_to 621 

$$$$
Compound 102|DecoysActives|sdf|109|dock8
  -GOLD-   6112412143D 1   1.00000     0.00000

 39 41  0  0  0  0  0  0  0  0  1 V2000
  -26.0308   36.7610  -15.2954 O   0  0  0  0  0  0  0  0  0  0  0  0
  -26.0601   36.3831  -16.4700 C   0  0  0  0  0  0  0  0  0  0  0  0
  -25.8141   35.0498  -16.8070 N   0  0  0  0  0  0  0  0  0  0  0  0
  -26.3741   37.4068  -17.5268 C   0  0  0  0  0  0  0  0  0  0  0  0
  -25.2954   34.0251  -15.8911 C   0  0  0  0  0  0  0  0  0  0  0  0
  -26.0340   34.6287  -18.1927 C   0  0  0  0  0  0  0  0  0  0  0  0
  -25.7135   37.3444  -18.7130 N   0  0  0  0  0  0  0  0  0  0  0  0
  -27.2911   38.4117  -17.2263 C   0  0  0  0  0  0  0  0  0  0  0  0
  -24.5981   32.8499  -16.6044 C   0  0  0  0  0  0  0  0  0  0  0  0
  -26.4168   33.1445  -18.3223 C   0  0  0  0  0  0  0  0  0  0  0  0
  -25.9909   38.3058  -19.6207 C   0  0  0  0  0  0  0  0  0  0  0  0
  -27.5572   39.3845  -18.1862 C   0  0  0  0  0  0  0  0  0  0  0  0
  -25.4425   32.2884  -17.6519 N   0  0  0  0  0  0  0  0  0  0  0  0
  -26.8962   39.3324  -19.4074 C   0  0  0  0  0  0  0  0  0  0  0  0
  -25.3129   30.9742  -18.0224 C   0  0  0  0  0  0  0  0  0  0  0  0
  -26.3508   30.3641  -18.6137 N   0  0  0  0  0  0  0  0  0  0  0  0
  -24.1494   30.3465  -17.7779 N   0  0  0  0  0  0  0  0  0  0  0  0
  -26.1929   29.0763  -18.9646 C   0  0  0  0  0  0  0  0  0  0  0  0
  -24.0382   29.0578  -18.1482 C   0  0  0  0  0  0  0  0  0  0  0  0
  -27.2288   28.3955  -19.5776 O   0  0  0  0  0  0  0  0  0  0  0  0
  -25.0445   28.3601  -18.7557 C   0  0  0  0  0  0  0  0  0  0  0  0
  -27.2258   27.0004  -19.2919 C   0  0  0  0  0  0  0  0  0  0  0  0
  -24.5868   34.4811  -15.1930 H   0  0  0  0  0  0  0  0  0  0  0  0
  -26.1535   33.6442  -15.3246 H   0  0  0  0  0  0  0  0  0  0  0  0
  -25.0962   34.8204  -18.7290 H   0  0  0  0  0  0  0  0  0  0  0  0
  -26.8081   35.2498  -18.6567 H   0  0  0  0  0  0  0  0  0  0  0  0
  -27.7857   38.4399  -16.2601 H   0  0  0  0  0  0  0  0  0  0  0  0
  -23.6597   33.1972  -17.0537 H   0  0  0  0  0  0  0  0  0  0  0  0
  -24.3459   32.1064  -15.8385 H   0  0  0  0  0  0  0  0  0  0  0  0
  -26.4857   32.9151  -19.3926 H   0  0  0  0  0  0  0  0  0  0  0  0
  -27.4049   32.9786  -17.8759 H   0  0  0  0  0  0  0  0  0  0  0  0
  -25.4455   38.2295  -20.5576 H   0  0  0  0  0  0  0  0  0  0  0  0
  -28.2683   40.1791  -17.9775 H   0  0  0  0  0  0  0  0  0  0  0  0
  -27.0775   40.0785  -20.1736 H   0  0  0  0  0  0  0  0  0  0  0  0
  -23.0810   28.5943  -17.9315 H   0  0  0  0  0  0  0  0  0  0  0  0
  -24.9449   27.3262  -19.0486 H   0  0  0  0  0  0  0  0  0  0  0  0
  -28.0733   26.5510  -19.8184 H   0  0  0  0  0  0  0  0  0  0  0  0
  -26.3125   26.5212  -19.6615 H   0  0  0  0  0  0  0  0  0  0  0  0
  -27.3627   26.8140  -18.2209 H   0  0  0  0  0  0  0  0  0  0  0  0
  1  2  2  0  0  0  0
  2  3  1  0  0  0  0
  2  4  1  0  0  0  0
  3  5  1  0  0  0  0
  3  6  1  0  0  0  0
  4  7  2  0  0  0  0
  4  8  1  0  0  0  0
  5  9  1  0  0  0  0
  5 23  1  0  0  0  0
  5 24  1  0  0  0  0
  6 10  1  0  0  0  0
  6 25  1  0  0  0  0
  6 26  1  0  0  0  0
  7 11  1  0  0  0  0
  8 12  2  0  0  0  0
  8 27  1  0  0  0  0
  9 13  1  0  0  0  0
  9 28  1  0  0  0  0
  9 29  1  0  0  0  0
 10 13  1  0  0  0  0
 10 30  1  0  0  0  0
 10 31  1  0  0  0  0
 11 14  2  0  0  0  0
 11 32  1  0  0  0  0
 12 14  1  0  0  0  0
 12 33  1  0  0  0  0
 13 15  1  0  0  0  0
 14 34  1  0  0  0  0
 15 16  2  0  0  0  0
 15 17  1  0  0  0  0
 16 18  1  0  0  0  0
 17 19  2  0  0  0  0
 18 20  1  0  0  0  0
 18 21  2  0  0  0  0
 19 21  1  0  0  0  0
 19 35  1  0  0  0  0
 20 22  1  0  0  0  0
 21 36  1  0  0  0  0
 22 37  1  0  0  0  0
 22 38  1  0  0  0  0
 22 39  1  0  0  0  0
M  END
>  <Column 1>
COc1ccnc(N2CCN(C(=O)c3ccccn3)CC2)n1 ZINC000000017602

>  <Total Molweight>
299.333

>  <cLogP>
1.0793

>  <cLogS>
-1.712

>  <H-Acceptors>
7

>  <H-Donors>
0

>  <Total Surface Area>
231.45

>  <MMFF94 Energy>
9.9451

> <Gold.Version>
5.8.1

> <Gold.Id.Protein>
ID|2FQT|mol2

> <Gold.PLP.Fitness>
50.8150

> <Gold.PLP.PLP>
-42.6561

> <Gold.PLP.part.hbond>
-1.0000

> <Gold.PLP.part.metal>
-2.0000

> <Gold.PLP.part.buried>
-2.6700

> <Gold.PLP.part.nonpolar>
-38.1802

> <Gold.PLP.part.repulsive>
0.6777

> <Gold.PLP.ligand.clash>
4.4185

> <Gold.PLP.ligand.torsion>
1.1968

> <Gold.PLP.Chemscore.Hbond>
0.9120

> <Gold.PLP.Chemscore.CHOScore>
0.0000

> <Gold.PLP.Chemscore.Metal>
1.9863

> <Gold.Chemscore.Hbonds>
donor molecule, donor type, donor heavy atom, donor atom, acceptor molecule, acceptor atom, score
      P1  H   966  2177       L1    20  0.91
      P1  M  1222  1222       L1    16  1.00
      P1  M  1222  1222       L1    20  0.99

> <Gold.PLP.Chemscore.Internal.Correction>
0.3171

> <Gold.Protein.RotatedTorsions>
[ 1849  621  620  617 ] final  130.30 input   60.00 | X-H torsion

> <Gold.Protein.ActiveResidues>
 HIS54   GLU57   HIS58   ALA61   PHE62   ILE76   ILE77   ASP78   ILE79   SER80  
 PRO81   GLN125  CYS126  GLY127  GLN128  HIS132  CO701  

> <Gold.Protein.RotatedAtoms>
  -17.9625   27.8655  -13.3039 H   0  0  0  0  0  0  0  0  0  0  0  0  # atno 1849 bound_to 621 
  -19.2549   28.8260  -13.0688 LP  0  0  0  0  0  0  0  0  0  0  0  0  # atno 2431 bound_to 621 
  -19.3708   27.5203  -14.0425 LP  0  0  0  0  0  0  0  0  0  0  0  0  # atno 2432 bound_to 621 

$$$$
Compound 103|DecoysActives|sdf|110|dock5
  -GOLD-   6112412143D 1   1.00000     0.00000

 36 38  0  0  0  0  0  0  0  0  1 V2000
  -24.4520   27.3179  -18.8349 S   0  0  0  0  0  0  0  0  0  0  0  0
  -25.0815   28.7750  -18.1576 C   0  0  0  0  0  0  0  0  0  0  0  0
  -26.0446   26.7961  -19.1855 C   0  0  0  0  0  0  0  0  0  0  0  0
  -26.4000   28.8717  -18.1799 N   0  0  0  0  0  0  0  0  0  0  0  0
  -24.1563   29.7692  -17.5878 C   0  0  0  0  0  0  0  0  0  0  0  0
  -26.9469   27.7468  -18.7652 C   0  0  0  0  0  0  0  0  0  0  0  0
  -23.0259   29.4576  -17.1962 O   0  0  0  0  0  0  0  0  0  0  0  0
  -24.5649   31.1086  -17.4757 N   0  0  0  0  0  0  0  0  0  0  0  0
  -23.7057   32.0511  -16.7534 C   0  0  0  0  0  0  0  0  0  0  0  0
  -25.7954   31.6645  -18.0551 C   0  0  0  0  0  0  0  0  0  0  0  0
  -24.4986   33.1481  -16.0223 C   0  0  0  0  0  0  0  0  0  0  0  0
  -25.7896   33.2003  -18.1863 C   0  0  0  0  0  0  0  0  0  0  0  0
  -25.4077   33.8372  -16.9324 N   0  0  0  0  0  0  0  0  0  0  0  0
  -25.8656   35.0925  -16.6192 C   0  0  0  0  0  0  0  0  0  0  0  0
  -24.9751   36.0500  -16.3222 N   0  0  0  0  0  0  0  0  0  0  0  0
  -27.1918   35.3134  -16.6216 N   0  0  0  0  0  0  0  0  0  0  0  0
  -25.4555   37.2687  -16.0204 C   0  0  0  0  0  0  0  0  0  0  0  0
  -27.6252   36.5497  -16.3139 C   0  0  0  0  0  0  0  0  0  0  0  0
  -24.5848   38.2959  -15.7060 O   0  0  0  0  0  0  0  0  0  0  0  0
  -26.7881   37.5837  -15.9996 C   0  0  0  0  0  0  0  0  0  0  0  0
  -23.2199   37.8892  -15.7006 C   0  0  0  0  0  0  0  0  0  0  0  0
  -26.2379   25.8465  -19.6633 H   0  0  0  0  0  0  0  0  0  0  0  0
  -28.0234   27.6686  -18.8606 H   0  0  0  0  0  0  0  0  0  0  0  0
  -23.0732   31.5201  -16.0338 H   0  0  0  0  0  0  0  0  0  0  0  0
  -23.0423   32.5039  -17.5008 H   0  0  0  0  0  0  0  0  0  0  0  0
  -26.6192   31.3600  -17.3987 H   0  0  0  0  0  0  0  0  0  0  0  0
  -25.9580   31.2329  -19.0476 H   0  0  0  0  0  0  0  0  0  0  0  0
  -25.0801   32.6994  -15.2075 H   0  0  0  0  0  0  0  0  0  0  0  0
  -23.7718   33.8404  -15.5799 H   0  0  0  0  0  0  0  0  0  0  0  0
  -26.7909   33.5035  -18.5156 H   0  0  0  0  0  0  0  0  0  0  0  0
  -25.0788   33.5001  -18.9663 H   0  0  0  0  0  0  0  0  0  0  0  0
  -28.7026   36.6808  -16.3301 H   0  0  0  0  0  0  0  0  0  0  0  0
  -27.1464   38.5720  -15.7540 H   0  0  0  0  0  0  0  0  0  0  0  0
  -22.6132   38.7626  -15.4426 H   0  0  0  0  0  0  0  0  0  0  0  0
  -23.0374   37.1210  -14.9410 H   0  0  0  0  0  0  0  0  0  0  0  0
  -22.9040   37.5458  -16.6920 H   0  0  0  0  0  0  0  0  0  0  0  0
  1  2  1  0  0  0  0
  1  3  1  0  0  0  0
  2  4  2  0  0  0  0
  2  5  1  0  0  0  0
  3  6  2  0  0  0  0
  3 22  1  0  0  0  0
  4  6  1  0  0  0  0
  5  7  2  0  0  0  0
  5  8  1  0  0  0  0
  6 23  1  0  0  0  0
  8  9  1  0  0  0  0
  8 10  1  0  0  0  0
  9 11  1  0  0  0  0
  9 24  1  0  0  0  0
  9 25  1  0  0  0  0
 10 12  1  0  0  0  0
 10 26  1  0  0  0  0
 10 27  1  0  0  0  0
 11 13  1  0  0  0  0
 11 28  1  0  0  0  0
 11 29  1  0  0  0  0
 12 13  1  0  0  0  0
 12 30  1  0  0  0  0
 12 31  1  0  0  0  0
 13 14  1  0  0  0  0
 14 15  2  0  0  0  0
 14 16  1  0  0  0  0
 15 17  1  0  0  0  0
 16 18  2  0  0  0  0
 17 19  1  0  0  0  0
 17 20  2  0  0  0  0
 18 20  1  0  0  0  0
 18 32  1  0  0  0  0
 19 21  1  0  0  0  0
 20 33  1  0  0  0  0
 21 34  1  0  0  0  0
 21 35  1  0  0  0  0
 21 36  1  0  0  0  0
M  END
>  <Column 1>
COc1ccnc(N2CCN(C(=O)c3nccs3)CC2)n1 ZINC000000017605

>  <Total Molweight>
305.361

>  <cLogP>
0.8563

>  <cLogS>
-1.513

>  <H-Acceptors>
7

>  <H-Donors>
0

>  <Total Surface Area>
227.39

>  <MMFF94 Energy>
-8.985

> <Gold.Version>
5.8.1

> <Gold.Id.Protein>
ID|2FQT|mol2

> <Gold.PLP.Fitness>
47.8578

> <Gold.PLP.PLP>
-41.9406

> <Gold.PLP.part.hbond>
-1.0000

> <Gold.PLP.part.metal>
-1.0000

> <Gold.PLP.part.buried>
-2.3933

> <Gold.PLP.part.nonpolar>
-38.7442

> <Gold.PLP.part.repulsive>
0.4695

> <Gold.PLP.ligand.clash>
0.0000

> <Gold.PLP.ligand.torsion>
1.2577

> <Gold.PLP.Chemscore.Hbond>
0.0000

> <Gold.PLP.Chemscore.CHOScore>
0.7957

> <Gold.PLP.Chemscore.Metal>
0.9951

> <Gold.Chemscore.Hbonds>
donor molecule, donor type, donor heavy atom, donor atom, acceptor molecule, acceptor atom, score
      L1  C     6    23       P1   403  0.80
      P1  M  1222  1222       L1     4  1.00

> <Gold.PLP.Chemscore.Internal.Correction>
0.0750

> <Gold.Protein.RotatedTorsions>
[ 1849  621  620  617 ] final -101.42 input   60.00 | X-H torsion

> <Gold.Protein.ActiveResidues>
 HIS54   GLU57   HIS58   ALA61   PHE62   ILE76   ILE77   ASP78   ILE79   SER80  
 PRO81   GLN125  CYS126  GLY127  GLN128  HIS132  CO701  

> <Gold.Protein.RotatedAtoms>
  -19.4699   27.6078  -14.0114 H   0  0  0  0  0  0  0  0  0  0  0  0  # atno 1849 bound_to 621 
  -17.9746   27.7590  -13.3873 LP  0  0  0  0  0  0  0  0  0  0  0  0  # atno 2431 bound_to 621 
  -19.1331   28.8469  -13.0116 LP  0  0  0  0  0  0  0  0  0  0  0  0  # atno 2432 bound_to 621 

$$$$
Compound 104|DecoysActives|sdf|111|dock2
  -GOLD-   6112412143D 1   1.00000     0.00000

 28 29  0  0  0  0  0  0  0  0  1 V2000
  -23.6936   38.3437  -15.7082 Cl  0  0  0  0  0  0  0  0  0  0  0  0
  -25.0605   37.3614  -16.0417 C   0  0  0  0  0  0  0  0  0  0  0  0
  -24.7696   36.0743  -16.3188 N   0  0  0  0  0  0  0  0  0  0  0  0
  -26.3333   37.8922  -16.0135 C   0  0  0  0  0  0  0  0  0  0  0  0
  -25.7860   35.2317  -16.6032 C   0  0  0  0  0  0  0  0  0  0  0  0
  -27.3823   37.0307  -16.2837 C   0  0  0  0  0  0  0  0  0  0  0  0
  -25.4921   33.8998  -16.8809 N   0  0  0  0  0  0  0  0  0  0  0  0
  -27.1049   35.6937  -16.5750 C   0  0  0  0  0  0  0  0  0  0  0  0
  -25.2993   32.9608  -15.7656 C   0  0  0  0  0  0  0  0  0  0  0  0
  -26.1711   33.3254  -18.0573 C   0  0  0  0  0  0  0  0  0  0  0  0
  -24.6846   31.6281  -16.2539 C   0  0  0  0  0  0  0  0  0  0  0  0
  -25.5320   31.9816  -18.4736 C   0  0  0  0  0  0  0  0  0  0  0  0
  -25.4458   31.0123  -17.3595 N   0  0  0  0  0  0  0  0  0  0  0  0
  -24.8065   29.7756  -17.8026 C   0  0  0  0  0  0  0  0  0  0  0  0
  -26.5054   38.9356  -15.7811 H   0  0  0  0  0  0  0  0  0  0  0  0
  -28.4086   37.3844  -16.2603 H   0  0  0  0  0  0  0  0  0  0  0  0
  -27.9356   35.0193  -16.7484 H   0  0  0  0  0  0  0  0  0  0  0  0
  -26.2667   32.7649  -15.2854 H   0  0  0  0  0  0  0  0  0  0  0  0
  -24.6275   33.3623  -15.0008 H   0  0  0  0  0  0  0  0  0  0  0  0
  -27.2342   33.1698  -17.8321 H   0  0  0  0  0  0  0  0  0  0  0  0
  -26.0988   34.0004  -18.9195 H   0  0  0  0  0  0  0  0  0  0  0  0
  -23.6470   31.8120  -16.5647 H   0  0  0  0  0  0  0  0  0  0  0  0
  -24.6520   30.9368  -15.4031 H   0  0  0  0  0  0  0  0  0  0  0  0
  -26.1342   31.5544  -19.2846 H   0  0  0  0  0  0  0  0  0  0  0  0
  -24.5306   32.1788  -18.8800 H   0  0  0  0  0  0  0  0  0  0  0  0
  -23.7862   29.9403  -18.1671 H   0  0  0  0  0  0  0  0  0  0  0  0
  -24.7659   29.0503  -16.9824 H   0  0  0  0  0  0  0  0  0  0  0  0
  -25.3881   29.3100  -18.6058 H   0  0  0  0  0  0  0  0  0  0  0  0
  1  2  1  0  0  0  0
  2  3  2  0  0  0  0
  2  4  1  0  0  0  0
  3  5  1  0  0  0  0
  4  6  2  0  0  0  0
  4 15  1  0  0  0  0
  5  7  1  0  0  0  0
  5  8  2  0  0  0  0
  6  8  1  0  0  0  0
  6 16  1  0  0  0  0
  7  9  1  0  0  0  0
  7 10  1  0  0  0  0
  8 17  1  0  0  0  0
  9 11  1  0  0  0  0
  9 18  1  0  0  0  0
  9 19  1  0  0  0  0
 10 12  1  0  0  0  0
 10 20  1  0  0  0  0
 10 21  1  0  0  0  0
 11 13  1  0  0  0  0
 11 22  1  0  0  0  0
 11 23  1  0  0  0  0
 12 13  1  0  0  0  0
 12 24  1  0  0  0  0
 12 25  1  0  0  0  0
 13 14  1  0  0  0  0
 14 26  1  0  0  0  0
 14 27  1  0  0  0  0
 14 28  1  0  0  0  0
M  END
>  <Column 1>
CN1CCN(c2cccc(Cl)n2)CC1 ZINC000000017836

>  <Total Molweight>
211.695

>  <cLogP>
1.4919

>  <cLogS>
-1.45

>  <H-Acceptors>
3

>  <H-Donors>
0

>  <Total Surface Area>
161.84

>  <MMFF94 Energy>
52.815

> <Gold.Version>
5.8.1

> <Gold.Id.Protein>
ID|2FQT|mol2

> <Gold.PLP.Fitness>
39.4763

> <Gold.PLP.PLP>
-39.9655

> <Gold.PLP.part.hbond>
0.0000

> <Gold.PLP.part.metal>
0.0000

> <Gold.PLP.part.buried>
-5.1160

> <Gold.PLP.part.nonpolar>
-35.2875

> <Gold.PLP.part.repulsive>
0.1430

> <Gold.PLP.ligand.clash>
0.0000

> <Gold.PLP.ligand.torsion>
0.4867

> <Gold.PLP.Chemscore.Hbond>
0.0000

> <Gold.PLP.Chemscore.CHOScore>
0.0000

> <Gold.PLP.Chemscore.Metal>
0.0000

> <Gold.PLP.Chemscore.Internal.Correction>
0.4843

> <Gold.Protein.RotatedTorsions>
[ 1849  621  620  617 ] final -111.44 input   60.00 | X-H torsion

> <Gold.Protein.ActiveResidues>
 HIS54   GLU57   HIS58   ALA61   PHE62   ILE76   ILE77   ASP78   ILE79   SER80  
 PRO81   GLN125  CYS126  GLY127  GLN128  HIS132  CO701  

> <Gold.Protein.RotatedAtoms>
  -19.3450   27.5063  -14.0406 H   0  0  0  0  0  0  0  0  0  0  0  0  # atno 1849 bound_to 621 
  -17.9539   27.8884  -13.2875 LP  0  0  0  0  0  0  0  0  0  0  0  0  # atno 2431 bound_to 621 
  -19.2796   28.8196  -13.0819 LP  0  0  0  0  0  0  0  0  0  0  0  0  # atno 2432 bound_to 621 

$$$$
Compound 105|DecoysActives|sdf|112|dock1
  -GOLD-   6112412143D 1   1.00000     0.00000

 22 23  0  0  0  0  0  0  0  0  1 V2000
  -23.7591   31.7847  -15.5054 O   0  0  0  0  0  0  0  0  0  0  0  0
  -24.5384   32.4746  -16.1739 C   0  0  0  0  0  0  0  0  0  0  0  0
  -24.7229   33.7628  -15.8034 N   0  0  0  0  0  0  0  0  0  0  0  0
  -25.2978   31.8155  -17.2939 C   0  0  0  0  0  0  0  0  0  0  0  0
  -25.5647   34.7662  -16.2873 C   0  0  0  0  0  0  0  0  0  0  0  0
  -25.3718   30.4401  -17.2005 N   0  0  0  0  0  0  0  0  0  0  0  0
  -25.7608   32.4651  -18.3653 C   0  0  0  0  0  0  0  0  0  0  0  0
  -26.0145   34.8792  -17.6005 C   0  0  0  0  0  0  0  0  0  0  0  0
  -25.8905   35.7807  -15.3696 C   0  0  0  0  0  0  0  0  0  0  0  0
  -25.7270   33.9036  -18.6609 C   0  0  0  0  0  0  0  0  0  0  0  0
  -26.7753   36.0013  -17.9835 C   0  0  0  0  0  0  0  0  0  0  0  0
  -26.6606   36.8817  -15.7500 C   0  0  0  0  0  0  0  0  0  0  0  0
  -25.6004   34.2702  -19.8264 O   0  0  0  0  0  0  0  0  0  0  0  0
  -27.1019   36.9945  -17.0617 C   0  0  0  0  0  0  0  0  0  0  0  0
  -24.1791   33.9781  -14.9750 H   0  0  0  0  0  0  0  0  0  0  0  0
  -24.9446   29.9368  -16.4354 H   0  0  0  0  0  0  0  0  0  0  0  0
  -26.0736   29.9852  -17.7840 H   0  0  0  0  0  0  0  0  0  0  0  0
  -26.1854   31.8919  -19.1850 H   0  0  0  0  0  0  0  0  0  0  0  0
  -25.5465   35.7251  -14.3382 H   0  0  0  0  0  0  0  0  0  0  0  0
  -27.1164   36.1032  -19.0133 H   0  0  0  0  0  0  0  0  0  0  0  0
  -26.9048   37.6535  -15.0239 H   0  0  0  0  0  0  0  0  0  0  0  0
  -27.6924   37.8535  -17.3713 H   0  0  0  0  0  0  0  0  0  0  0  0
  1  2  2  0  0  0  0
  2  3  1  0  0  0  0
  2  4  1  0  0  0  0
  3  5  1  0  0  0  0
  3 15  1  0  0  0  0
  4  6  1  0  0  0  0
  4  7  2  0  0  0  0
  5  8  2  0  0  0  0
  5  9  1  0  0  0  0
  6 16  1  0  0  0  0
  6 17  1  0  0  0  0
  7 10  1  0  0  0  0
  7 18  1  0  0  0  0
  8 11  1  0  0  0  0
  8 10  1  0  0  0  0
  9 12  2  0  0  0  0
  9 19  1  0  0  0  0
 10 13  2  0  0  0  0
 11 14  2  0  0  0  0
 11 20  1  0  0  0  0
 12 14  1  0  0  0  0
 12 21  1  0  0  0  0
 14 22  1  0  0  0  0
M  END
>  <Column 1>
Nc1cc(=O)c2ccccc2[nH]c1=O ZINC000000017866

>  <Total Molweight>
188.186

>  <cLogP>
-0.2709

>  <cLogS>
-2.507

>  <H-Acceptors>
4

>  <H-Donors>
2

>  <Total Surface Area>
139.95

>  <MMFF94 Energy>
63.753

> <Gold.Version>
5.8.1

> <Gold.Id.Protein>
ID|2FQT|mol2

> <Gold.PLP.Fitness>
33.3009

> <Gold.PLP.PLP>
-33.2634

> <Gold.PLP.part.hbond>
-0.8014

> <Gold.PLP.part.metal>
0.0000

> <Gold.PLP.part.buried>
-3.9465

> <Gold.PLP.part.nonpolar>
-29.1835

> <Gold.PLP.part.repulsive>
0.4731

> <Gold.PLP.ligand.clash>
0.0000

> <Gold.PLP.ligand.torsion>
0.0000

> <Gold.PLP.Chemscore.Hbond>
0.0125

> <Gold.PLP.Chemscore.CHOScore>
0.0000

> <Gold.PLP.Chemscore.Metal>
0.0000

> <Gold.Chemscore.Hbonds>
donor molecule, donor type, donor heavy atom, donor atom, acceptor molecule, acceptor atom, score
      L1  H     6    16       P1   426  0.01

> <Gold.PLP.Chemscore.Internal.Correction>
0.0000

> <Gold.Protein.RotatedTorsions>
[ 1849  621  620  617 ] final   68.73 input   60.00 | X-H torsion

> <Gold.Protein.ActiveResidues>
 HIS54   GLU57   HIS58   ALA61   PHE62   ILE76   ILE77   ASP78   ILE79   SER80  
 PRO81   GLN125  CYS126  GLY127  GLN128  HIS132  CO701  

> <Gold.Protein.RotatedAtoms>
  -18.3749   28.6307  -12.9000 H   0  0  0  0  0  0  0  0  0  0  0  0  # atno 1849 bound_to 621 
  -19.7668   28.2549  -13.6548 LP  0  0  0  0  0  0  0  0  0  0  0  0  # atno 2431 bound_to 621 
  -18.4436   27.3209  -13.8633 LP  0  0  0  0  0  0  0  0  0  0  0  0  # atno 2432 bound_to 621 

$$$$
Compound 106|DecoysActives|sdf|113|dock1
  -GOLD-   6112412143D 1   1.00000     0.00000

 21 22  0  0  0  0  0  0  0  0  1 V2000
  -25.8083   33.0557  -19.3161 O   0  0  0  0  0  0  0  0  0  0  0  0
  -25.6185   33.2343  -18.1175 C   0  0  0  0  0  0  0  0  0  0  0  0
  -24.9576   32.3106  -17.3421 N   0  0  0  0  0  0  0  0  0  0  0  0
  -26.0893   34.4591  -17.4099 C   0  0  0  0  0  0  0  0  0  0  0  0
  -24.7273   32.4633  -16.0009 C   0  0  0  0  0  0  0  0  0  0  0  0
  -25.8648   34.5942  -16.0873 C   0  0  0  0  0  0  0  0  0  0  0  0
  -26.7898   35.5234  -18.2056 C   0  0  0  0  0  0  0  0  0  0  0  0
  -25.1554   33.5599  -15.3642 C   0  0  0  0  0  0  0  0  0  0  0  0
  -26.3055   35.7049  -15.4016 N   0  0  0  0  0  0  0  0  0  0  0  0
  -26.7973   36.8763  -17.4793 C   0  0  0  0  0  0  0  0  0  0  0  0
  -27.1554   36.7162  -16.0026 C   0  0  0  0  0  0  0  0  0  0  0  0
  -24.6375   31.4814  -17.8266 H   0  0  0  0  0  0  0  0  0  0  0  0
  -24.1924   31.6645  -15.4987 H   0  0  0  0  0  0  0  0  0  0  0  0
  -27.8213   35.2017  -18.3940 H   0  0  0  0  0  0  0  0  0  0  0  0
  -26.3064   35.6576  -19.1802 H   0  0  0  0  0  0  0  0  0  0  0  0
  -24.9749   33.6860  -14.3030 H   0  0  0  0  0  0  0  0  0  0  0  0
  -26.1408   35.7480  -14.4022 H   0  0  0  0  0  0  0  0  0  0  0  0
  -25.7997   37.3288  -17.5601 H   0  0  0  0  0  0  0  0  0  0  0  0
  -27.4988   37.5615  -17.9679 H   0  0  0  0  0  0  0  0  0  0  0  0
  -27.0274   37.6677  -15.4765 H   0  0  0  0  0  0  0  0  0  0  0  0
  -28.2043   36.4159  -15.8985 H   0  0  0  0  0  0  0  0  0  0  0  0
  1  2  2  0  0  0  0
  2  3  1  0  0  0  0
  2  4  1  0  0  0  0
  3  5  1  0  0  0  0
  3 12  1  0  0  0  0
  4  6  2  0  0  0  0
  4  7  1  0  0  0  0
  5  8  2  0  0  0  0
  5 13  1  0  0  0  0
  6  9  1  0  0  0  0
  6  8  1  0  0  0  0
  7 10  1  0  0  0  0
  7 14  1  0  0  0  0
  7 15  1  0  0  0  0
  8 16  1  0  0  0  0
  9 11  1  0  0  0  0
  9 17  1  0  0  0  0
 10 11  1  0  0  0  0
 10 18  1  0  0  0  0
 10 19  1  0  0  0  0
 11 20  1  0  0  0  0
 11 21  1  0  0  0  0
M  END
>  <Column 1>
O=c1[nH]ccc2c1CCCN2 ZINC000000018291

>  <Total Molweight>
150.18

>  <cLogP>
-0.1641

>  <cLogS>
-1.536

>  <H-Acceptors>
3

>  <H-Donors>
2

>  <Total Surface Area>
117.87

>  <MMFF94 Energy>
-24.052

> <Gold.Version>
5.8.1

> <Gold.Id.Protein>
ID|2FQT|mol2

> <Gold.PLP.Fitness>
33.6393

> <Gold.PLP.PLP>
-30.6633

> <Gold.PLP.part.hbond>
-1.0000

> <Gold.PLP.part.metal>
0.0000

> <Gold.PLP.part.buried>
-5.0068

> <Gold.PLP.part.nonpolar>
-24.4456

> <Gold.PLP.part.repulsive>
0.2529

> <Gold.PLP.ligand.clash>
0.0000

> <Gold.PLP.ligand.torsion>
0.0000

> <Gold.PLP.Chemscore.Hbond>
0.9920

> <Gold.PLP.Chemscore.CHOScore>
0.0000

> <Gold.PLP.Chemscore.Metal>
0.0000

> <Gold.Chemscore.Hbonds>
donor molecule, donor type, donor heavy atom, donor atom, acceptor molecule, acceptor atom, score
      L1  H     9    17       P1   431  0.99

> <Gold.PLP.Chemscore.Internal.Correction>
0.0000

> <Gold.Protein.RotatedTorsions>
[ 1849  621  620  617 ] final -138.50 input   60.00 | X-H torsion

> <Gold.Protein.ActiveResidues>
 HIS54   GLU57   HIS58   ALA61   PHE62   ILE76   ILE77   ASP78   ILE79   SER80  
 PRO81   GLN125  CYS126  GLY127  GLN128  HIS132  CO701  

> <Gold.Protein.RotatedAtoms>
  -18.9462   27.3251  -14.0318 H   0  0  0  0  0  0  0  0  0  0  0  0  # atno 1849 bound_to 621 
  -18.0353   28.2540  -13.0544 LP  0  0  0  0  0  0  0  0  0  0  0  0  # atno 2431 bound_to 621 
  -19.5998   28.6366  -13.3240 LP  0  0  0  0  0  0  0  0  0  0  0  0  # atno 2432 bound_to 621 

$$$$
Compound 107|DecoysActives|sdf|114|dock1
  -GOLD-   6112412143D 1   1.00000     0.00000

 31 33  0  0  0  0  0  0  0  0  1 V2000
  -25.5153   33.9200  -15.9971 O   0  0  0  0  0  0  0  0  0  0  0  0
  -26.1345   34.9166  -16.7082 C   0  0  0  0  0  0  0  0  0  0  0  0
  -25.4675   32.8695  -16.8625 C   0  0  0  0  0  0  0  0  0  0  0  0
  -26.4666   34.5765  -17.9380 N   0  0  0  0  0  0  0  0  0  0  0  0
  -26.3216   36.0998  -16.0883 N   0  0  0  0  0  0  0  0  0  0  0  0
  -26.0511   33.2757  -18.0487 C   0  0  0  0  0  0  0  0  0  0  0  0
  -24.9365   31.6066  -16.6305 C   0  0  0  0  0  0  0  0  0  0  0  0
  -25.2344   36.7917  -15.3990 C   0  0  0  0  0  0  0  0  0  0  0  0
  -27.3990   36.9818  -16.5365 C   0  0  0  0  0  0  0  0  0  0  0  0
  -26.1265   32.3682  -19.1130 C   0  0  0  0  0  0  0  0  0  0  0  0
  -25.0187   30.7092  -17.7026 C   0  0  0  0  0  0  0  0  0  0  0  0
  -24.6692   37.9069  -16.3126 C   0  0  0  0  0  0  0  0  0  0  0  0
  -26.8150   38.0954  -17.4394 C   0  0  0  0  0  0  0  0  0  0  0  0
  -25.6019   31.0802  -18.9217 C   0  0  0  0  0  0  0  0  0  0  0  0
  -25.7185   38.8475  -16.7780 N   0  0  0  0  0  0  0  0  0  0  0  0
  -25.1534   39.8391  -17.6902 C   0  0  0  0  0  0  0  0  0  0  0  0
  -24.4915   31.3395  -15.6807 H   0  0  0  0  0  0  0  0  0  0  0  0
  -25.6280   37.2420  -14.4786 H   0  0  0  0  0  0  0  0  0  0  0  0
  -24.4266   36.1187  -15.0901 H   0  0  0  0  0  0  0  0  0  0  0  0
  -28.1894   36.4428  -17.0723 H   0  0  0  0  0  0  0  0  0  0  0  0
  -27.8745   37.4371  -15.6583 H   0  0  0  0  0  0  0  0  0  0  0  0
  -26.5796   32.6595  -20.0538 H   0  0  0  0  0  0  0  0  0  0  0  0
  -24.6219   29.7023  -17.5853 H   0  0  0  0  0  0  0  0  0  0  0  0
  -24.1693   37.4426  -17.1732 H   0  0  0  0  0  0  0  0  0  0  0  0
  -23.9096   38.4613  -15.7484 H   0  0  0  0  0  0  0  0  0  0  0  0
  -27.6248   38.7879  -17.6989 H   0  0  0  0  0  0  0  0  0  0  0  0
  -26.4530   37.6440  -18.3730 H   0  0  0  0  0  0  0  0  0  0  0  0
  -25.6512   30.3589  -19.7351 H   0  0  0  0  0  0  0  0  0  0  0  0
  -24.3698   40.4181  -17.1890 H   0  0  0  0  0  0  0  0  0  0  0  0
  -24.7226   39.3812  -18.5879 H   0  0  0  0  0  0  0  0  0  0  0  0
  -25.9222   40.5542  -18.0031 H   0  0  0  0  0  0  0  0  0  0  0  0
  1  2  1  0  0  0  0
  1  3  1  0  0  0  0
  2  4  2  0  0  0  0
  2  5  1  0  0  0  0
  3  6  2  0  0  0  0
  3  7  1  0  0  0  0
  4  6  1  0  0  0  0
  5  8  1  0  0  0  0
  5  9  1  0  0  0  0
  6 10  1  0  0  0  0
  7 11  2  0  0  0  0
  7 17  1  0  0  0  0
  8 12  1  0  0  0  0
  8 18  1  0  0  0  0
  8 19  1  0  0  0  0
  9 13  1  0  0  0  0
  9 20  1  0  0  0  0
  9 21  1  0  0  0  0
 10 14  2  0  0  0  0
 10 22  1  0  0  0  0
 11 14  1  0  0  0  0
 11 23  1  0  0  0  0
 12 15  1  0  0  0  0
 12 24  1  0  0  0  0
 12 25  1  0  0  0  0
 13 15  1  0  0  0  0
 13 26  1  0  0  0  0
 13 27  1  0  0  0  0
 14 28  1  0  0  0  0
 15 16  1  0  0  0  0
 16 29  1  0  0  0  0
 16 30  1  0  0  0  0
 16 31  1  0  0  0  0
M  END
>  <Column 1>
CN1CCN(c2nc3ccccc3o2)CC1 ZINC000000019141

>  <Total Molweight>
217.271

>  <cLogP>
1.8193

>  <cLogS>
-2.337

>  <H-Acceptors>
4

>  <H-Donors>
0

>  <Total Surface Area>
170.71

>  <MMFF94 Energy>
46.27

> <Gold.Version>
5.8.1

> <Gold.Id.Protein>
ID|2FQT|mol2

> <Gold.PLP.Fitness>
41.9646

> <Gold.PLP.PLP>
-42.9779

> <Gold.PLP.part.hbond>
0.0000

> <Gold.PLP.part.metal>
0.0000

> <Gold.PLP.part.buried>
-5.2734

> <Gold.PLP.part.nonpolar>
-38.6429

> <Gold.PLP.part.repulsive>
0.1179

> <Gold.PLP.ligand.clash>
0.0000

> <Gold.PLP.ligand.torsion>
0.5811

> <Gold.PLP.Chemscore.Hbond>
0.0000

> <Gold.PLP.Chemscore.CHOScore>
0.0000

> <Gold.PLP.Chemscore.Metal>
0.0000

> <Gold.PLP.Chemscore.Internal.Correction>
0.1490

> <Gold.Protein.RotatedTorsions>
[ 1849  621  620  617 ] final  -45.19 input   60.00 | X-H torsion

> <Gold.Protein.ActiveResidues>
 HIS54   GLU57   HIS58   ALA61   PHE62   ILE76   ILE77   ASP78   ILE79   SER80  
 PRO81   GLN125  CYS126  GLY127  GLN128  HIS132  CO701  

> <Gold.Protein.RotatedAtoms>
  -19.7516   28.3313  -13.5920 H   0  0  0  0  0  0  0  0  0  0  0  0  # atno 1849 bound_to 621 
  -18.5314   27.3018  -13.9074 LP  0  0  0  0  0  0  0  0  0  0  0  0  # atno 2431 bound_to 621 
  -18.2926   28.5755  -12.9138 LP  0  0  0  0  0  0  0  0  0  0  0  0  # atno 2432 bound_to 621 

$$$$
Compound 108|DecoysActives|sdf|115|dock1
  -GOLD-   6112412143D 1   1.00000     0.00000

 25 26  0  0  0  0  0  0  0  0  1 V2000
  -26.4695   34.8981  -18.9573 O   0  0  0  0  0  0  0  0  0  0  0  0
  -26.0043   34.4923  -17.8908 C   0  0  0  0  0  0  0  0  0  0  0  0
  -25.1425   33.3989  -17.8213 N   0  0  0  0  0  0  0  0  0  0  0  0
  -26.3128   35.0938  -16.6697 N   0  0  0  0  0  0  0  0  0  0  0  0
  -24.6248   32.8856  -16.6475 C   0  0  0  0  0  0  0  0  0  0  0  0
  -24.7695   32.7500  -19.0659 C   0  0  0  0  0  0  0  0  0  0  0  0
  -25.8087   34.6394  -15.4744 C   0  0  0  0  0  0  0  0  0  0  0  0
  -27.1978   36.2517  -16.6466 C   0  0  0  0  0  0  0  0  0  0  0  0
  -23.8949   31.9002  -16.5665 O   0  0  0  0  0  0  0  0  0  0  0  0
  -24.9975   33.5867  -15.4093 C   0  0  0  0  0  0  0  0  0  0  0  0
  -25.4614   31.4302  -19.1646 C   0  0  0  0  0  0  0  0  0  0  0  0
  -26.3859   31.0409  -20.1136 C   0  0  0  0  0  0  0  0  0  0  0  0
  -25.3099   30.3049  -18.3039 C   0  0  0  0  0  0  0  0  0  0  0  0
  -26.8041   29.7699  -19.8887 O   0  0  0  0  0  0  0  0  0  0  0  0
  -26.1459   29.3273  -18.7878 C   0  0  0  0  0  0  0  0  0  0  0  0
  -25.0488   33.3794  -19.9191 H   0  0  0  0  0  0  0  0  0  0  0  0
  -23.6833   32.6100  -19.1144 H   0  0  0  0  0  0  0  0  0  0  0  0
  -26.1010   35.1757  -14.5759 H   0  0  0  0  0  0  0  0  0  0  0  0
  -26.6620   37.1001  -16.2089 H   0  0  0  0  0  0  0  0  0  0  0  0
  -27.5368   36.5324  -17.6470 H   0  0  0  0  0  0  0  0  0  0  0  0
  -28.0741   36.0172  -16.0337 H   0  0  0  0  0  0  0  0  0  0  0  0
  -24.5906   33.2106  -14.4802 H   0  0  0  0  0  0  0  0  0  0  0  0
  -26.8220   31.5321  -20.9736 H   0  0  0  0  0  0  0  0  0  0  0  0
  -24.6626   30.2223  -17.4406 H   0  0  0  0  0  0  0  0  0  0  0  0
  -26.3743   28.3164  -18.4809 H   0  0  0  0  0  0  0  0  0  0  0  0
  1  2  2  0  0  0  0
  2  3  1  0  0  0  0
  2  4  1  0  0  0  0
  3  5  1  0  0  0  0
  3  6  1  0  0  0  0
  4  7  1  0  0  0  0
  4  8  1  0  0  0  0
  5  9  2  0  0  0  0
  5 10  1  0  0  0  0
  6 11  1  0  0  0  0
  6 16  1  0  0  0  0
  6 17  1  0  0  0  0
  7 10  2  0  0  0  0
  7 18  1  0  0  0  0
  8 19  1  0  0  0  0
  8 20  1  0  0  0  0
  8 21  1  0  0  0  0
 10 22  1  0  0  0  0
 11 12  2  0  0  0  0
 11 13  1  0  0  0  0
 12 14  1  0  0  0  0
 12 23  1  0  0  0  0
 13 15  2  0  0  0  0
 13 24  1  0  0  0  0
 14 15  1  0  0  0  0
 15 25  1  0  0  0  0
M  END
>  <Column 1>
Cn1ccc(=O)n(Cc2ccoc2)c1=O ZINC000000019214

>  <Total Molweight>
206.2

>  <cLogP>
0.0174

>  <cLogS>
-1.509

>  <H-Acceptors>
5

>  <H-Donors>
0

>  <Total Surface Area>
158.07

>  <MMFF94 Energy>
-81.581

> <Gold.Version>
5.8.1

> <Gold.Id.Protein>
ID|2FQT|mol2

> <Gold.PLP.Fitness>
49.0200

> <Gold.PLP.PLP>
-34.4981

> <Gold.PLP.part.hbond>
-1.0000

> <Gold.PLP.part.metal>
-1.0000

> <Gold.PLP.part.buried>
0.1269

> <Gold.PLP.part.nonpolar>
-33.5012

> <Gold.PLP.part.repulsive>
0.1970

> <Gold.PLP.ligand.clash>
0.0000

> <Gold.PLP.ligand.torsion>
0.1481

> <Gold.PLP.Chemscore.Hbond>
1.0000

> <Gold.PLP.Chemscore.CHOScore>
2.0000

> <Gold.PLP.Chemscore.Metal>
0.9693

> <Gold.Chemscore.Hbonds>
donor molecule, donor type, donor heavy atom, donor atom, acceptor molecule, acceptor atom, score
      P1  H   966  2177       L1    14  1.00
      L1  C     7    18       P1   431  1.00
      L1  C    12    23       P1   954  1.00
      P1  M  1222  1222       L1    14  0.97

> <Gold.PLP.Chemscore.Internal.Correction>
0.0020

> <Gold.Protein.RotatedTorsions>
[ 1849  621  620  617 ] final   -8.92 input   60.00 | X-H torsion

> <Gold.Protein.ActiveResidues>
 HIS54   GLU57   HIS58   ALA61   PHE62   ILE76   ILE77   ASP78   ILE79   SER80  
 PRO81   GLN125  CYS126  GLY127  GLN128  HIS132  CO701  

> <Gold.Protein.RotatedAtoms>
  -19.4980   28.7125  -13.2314 H   0  0  0  0  0  0  0  0  0  0  0  0  # atno 1849 bound_to 621 
  -19.0954   27.3684  -14.0556 LP  0  0  0  0  0  0  0  0  0  0  0  0  # atno 2431 bound_to 621 
  -17.9840   28.1250  -13.1288 LP  0  0  0  0  0  0  0  0  0  0  0  0  # atno 2432 bound_to 621 

$$$$
Compound 109|DecoysActives|sdf|116|dock2
  -GOLD-   6112412143D 1   1.00000     0.00000

 16 16  0  0  0  0  0  0  0  0  1 V2000
  -25.6268   34.6157  -16.4364 F   0  0  0  0  0  0  0  0  0  0  0  0
  -25.2998   33.3095  -16.3223 C   0  0  0  0  0  0  0  0  0  0  0  0
  -25.5659   32.4686  -17.4685 C   0  0  0  0  0  0  0  0  0  0  0  0
  -24.7518   32.9070  -15.1699 C   0  0  0  0  0  0  0  0  0  0  0  0
  -26.2013   33.0622  -18.6874 C   0  0  0  0  0  0  0  0  0  0  0  0
  -25.3084   31.1510  -17.4999 C   0  0  0  0  0  0  0  0  0  0  0  0
  -26.4534   34.2587  -18.7917 O   0  0  0  0  0  0  0  0  0  0  0  0
  -26.4705   32.1968  -19.7158 N   0  0  0  0  0  0  0  0  0  0  0  0
  -25.6012   30.3789  -18.5908 N   0  0  0  0  0  0  0  0  0  0  0  0
  -26.1870   30.8629  -19.7269 C   0  0  0  0  0  0  0  0  0  0  0  0
  -26.4362   30.1422  -20.6864 O   0  0  0  0  0  0  0  0  0  0  0  0
  -24.5887   33.6273  -14.3749 H   0  0  0  0  0  0  0  0  0  0  0  0
  -24.4396   31.8842  -14.9957 H   0  0  0  0  0  0  0  0  0  0  0  0
  -24.8655   30.6234  -16.6601 H   0  0  0  0  0  0  0  0  0  0  0  0
  -26.8983   32.5843  -20.5420 H   0  0  0  0  0  0  0  0  0  0  0  0
  -25.3966   29.3855  -18.5923 H   0  0  0  0  0  0  0  0  0  0  0  0
  1  2  1  0  0  0  0
  2  3  1  0  0  0  0
  2  4  2  0  0  0  0
  3  5  1  0  0  0  0
  3  6  2  0  0  0  0
  4 12  1  0  0  0  0
  4 13  1  0  0  0  0
  5  7  2  0  0  0  0
  5  8  1  0  0  0  0
  6  9  1  0  0  0  0
  6 14  1  0  0  0  0
  8 10  1  0  0  0  0
  8 15  1  0  0  0  0
  9 10  1  0  0  0  0
  9 16  1  0  0  0  0
 10 11  2  0  0  0  0
M  END
>  <Column 1>
C=C(F)c1c[nH]c(=O)[nH]c1=O ZINC000000019687

>  <Total Molweight>
156.116

>  <cLogP>
0.2023

>  <cLogS>
-2.098

>  <H-Acceptors>
4

>  <H-Donors>
2

>  <Total Surface Area>
112.23

>  <MMFF94 Energy>
-74.755

> <Gold.Version>
5.8.1

> <Gold.Id.Protein>
ID|2FQT|mol2

> <Gold.PLP.Fitness>
32.2904

> <Gold.PLP.PLP>
-27.3704

> <Gold.PLP.part.hbond>
-2.0000

> <Gold.PLP.part.metal>
0.0000

> <Gold.PLP.part.buried>
-2.8607

> <Gold.PLP.part.nonpolar>
-23.0111

> <Gold.PLP.part.repulsive>
0.7581

> <Gold.PLP.ligand.clash>
0.0000

> <Gold.PLP.ligand.torsion>
0.0005

> <Gold.PLP.Chemscore.Hbond>
1.6400

> <Gold.PLP.Chemscore.CHOScore>
0.0000

> <Gold.PLP.Chemscore.Metal>
0.0000

> <Gold.Chemscore.Hbonds>
donor molecule, donor type, donor heavy atom, donor atom, acceptor molecule, acceptor atom, score
      L1  H     8    15       P1   954  1.00
      P1  H   966  2177       L1    11  0.64

> <Gold.PLP.Chemscore.Internal.Correction>
0.0009

> <Gold.Protein.RotatedTorsions>
[ 1849  621  620  617 ] final  160.29 input   60.00 | X-H torsion

> <Gold.Protein.ActiveResidues>
 HIS54   GLU57   HIS58   ALA61   PHE62   ILE76   ILE77   ASP78   ILE79   SER80  
 PRO81   GLN125  CYS126  GLY127  GLN128  HIS132  CO701  

> <Gold.Protein.RotatedAtoms>
  -18.1161   27.5186  -13.6052 H   0  0  0  0  0  0  0  0  0  0  0  0  # atno 1849 bound_to 621 
  -18.7936   28.8245  -12.9098 LP  0  0  0  0  0  0  0  0  0  0  0  0  # atno 2431 bound_to 621 
  -19.6775   27.8712  -13.8981 LP  0  0  0  0  0  0  0  0  0  0  0  0  # atno 2432 bound_to 621 

$$$$
Compound 110|DecoysActives|sdf|117|dock2
  -GOLD-   6112412143D 1   1.00000     0.00000

 33 35  0  0  0  0  0  0  0  0  1 V2000
  -23.0673   28.9714  -17.5122 Cl  0  0  0  0  0  0  0  0  0  0  0  0
  -23.9306   30.4140  -17.9041 C   0  0  0  0  0  0  0  0  0  0  0  0
  -25.1827   30.4381  -18.5172 C   0  0  0  0  0  0  0  0  0  0  0  0
  -23.3059   31.6241  -17.5871 C   0  0  0  0  0  0  0  0  0  0  0  0
  -26.0360   28.9510  -18.9367 S   0  0  0  0  0  0  0  0  0  0  0  0
  -25.8066   31.6667  -18.8026 C   0  0  0  0  0  0  0  0  0  0  0  0
  -23.9239   32.8454  -17.8752 C   0  0  0  0  0  0  0  0  0  0  0  0
  -25.0641   27.9038  -19.1607 O   0  0  0  0  0  0  0  0  0  0  0  0
  -27.0689   29.2440  -19.8998 O   0  0  0  0  0  0  0  0  0  0  0  0
  -26.7941   28.5203  -17.5025 N   0  0  0  0  0  0  0  0  0  0  0  0
  -25.1883   32.8919  -18.4836 C   0  0  0  0  0  0  0  0  0  0  0  0
  -25.8554   34.2175  -18.8146 C   0  0  2  0  0  0  0  0  0  0  0  0
  -27.1539   34.0381  -19.3328 O   0  0  0  0  0  0  0  0  0  0  0  0
  -25.1481   34.9502  -19.8204 N   0  0  0  0  0  0  0  0  0  0  0  0
  -25.9099   35.1890  -17.6709 C   0  0  0  0  0  0  0  0  0  0  0  0
  -24.7679   36.2063  -19.4062 C   0  0  0  0  0  0  0  0  0  0  0  0
  -25.2549   36.3679  -18.0324 C   0  0  0  0  0  0  0  0  0  0  0  0
  -26.4887   35.0747  -16.4170 C   0  0  0  0  0  0  0  0  0  0  0  0
  -24.1520   37.0300  -20.0497 O   0  0  0  0  0  0  0  0  0  0  0  0
  -25.1363   37.4522  -17.1851 C   0  0  0  0  0  0  0  0  0  0  0  0
  -26.3828   36.1596  -15.5387 C   0  0  0  0  0  0  0  0  0  0  0  0
  -25.7110   37.3374  -15.9184 C   0  0  0  0  0  0  0  0  0  0  0  0
  -22.3268   31.6280  -17.1114 H   0  0  0  0  0  0  0  0  0  0  0  0
  -26.7873   31.6721  -19.2806 H   0  0  0  0  0  0  0  0  0  0  0  0
  -23.4041   33.7677  -17.6164 H   0  0  0  0  0  0  0  0  0  0  0  0
  -27.7905   28.7335  -17.5599 H   0  0  0  0  0  0  0  0  0  0  0  0
  -26.3207   28.9643  -16.7139 H   0  0  0  0  0  0  0  0  0  0  0  0
  -27.0067   33.8473  -20.2735 H   0  0  0  0  0  0  0  0  0  0  0  0
  -24.8919   34.5803  -20.7240 H   0  0  0  0  0  0  0  0  0  0  0  0
  -27.0128   34.1708  -16.1209 H   0  0  0  0  0  0  0  0  0  0  0  0
  -24.6182   38.3531  -17.4969 H   0  0  0  0  0  0  0  0  0  0  0  0
  -26.8274   36.0948  -14.5471 H   0  0  0  0  0  0  0  0  0  0  0  0
  -25.6425   38.1668  -15.2174 H   0  0  0  0  0  0  0  0  0  0  0  0
  1  2  1  0  0  0  0
  2  3  2  0  0  0  0
  2  4  1  0  0  0  0
  3  5  1  0  0  0  0
  3  6  1  0  0  0  0
  4  7  2  0  0  0  0
  4 23  1  0  0  0  0
  5  8  2  0  0  0  0
  5  9  2  0  0  0  0
  5 10  1  0  0  0  0
  6 11  2  0  0  0  0
  6 24  1  0  0  0  0
  7 11  1  0  0  0  0
  7 25  1  0  0  0  0
 10 26  1  0  0  0  0
 10 27  1  0  0  0  0
 11 12  1  0  0  0  0
 12 13  1  0  0  0  0
 12 14  1  0  0  0  0
 12 15  1  0  0  0  0
 13 28  1  0  0  0  0
 14 16  1  0  0  0  0
 14 29  1  0  0  0  0
 15 17  2  0  0  0  0
 15 18  1  0  0  0  0
 16 19  2  0  0  0  0
 16 17  1  0  0  0  0
 17 20  1  0  0  0  0
 18 21  2  0  0  0  0
 18 30  1  0  0  0  0
 20 22  2  0  0  0  0
 20 31  1  0  0  0  0
 21 22  1  0  0  0  0
 21 32  1  0  0  0  0
 22 33  1  0  0  0  0
M  END
>  <Column 1>
NS(=O)(=O)c1cc([C@]2(O)NC(=O)c3ccccc32)ccc1Cl ZINC000000020253

>  <Total Molweight>
338.77

>  <cLogP>
1.951

>  <cLogS>
-3.465

>  <H-Acceptors>
6

>  <H-Donors>
3

>  <Total Surface Area>
218.01

>  <MMFF94 Energy>
-105.23

> <Gold.Version>
5.8.1

> <Gold.Id.Protein>
ID|2FQT|mol2

> <Gold.PLP.Fitness>
55.2855

> <Gold.PLP.PLP>
-32.9300

> <Gold.PLP.part.hbond>
-3.0000

> <Gold.PLP.part.metal>
-2.0000

> <Gold.PLP.part.buried>
0.6993

> <Gold.PLP.part.nonpolar>
-29.6310

> <Gold.PLP.part.repulsive>
0.0441

> <Gold.PLP.ligand.clash>
0.0000

> <Gold.PLP.ligand.torsion>
1.1257

> <Gold.PLP.Chemscore.Hbond>
3.5520

> <Gold.PLP.Chemscore.CHOScore>
0.0000

> <Gold.PLP.Chemscore.Metal>
1.9984

> <Gold.Chemscore.Hbonds>
donor molecule, donor type, donor heavy atom, donor atom, acceptor molecule, acceptor atom, score
      L1  H    10    26       P1   403  1.00
      L1  H    10    27       P1   426  0.80
      L1  H    13    28       P1   954  0.75
      P1  H   966  2177       L1     9  1.00
      P1  M  1222  1222       L1     9  1.00
      P1  M  1222  1222       L1    10  1.00

> <Gold.PLP.Chemscore.Internal.Correction>
1.9606

> <Gold.Protein.RotatedTorsions>
[ 1849  621  620  617 ] final  148.26 input   60.00 | X-H torsion

> <Gold.Protein.ActiveResidues>
 HIS54   GLU57   HIS58   ALA61   PHE62   ILE76   ILE77   ASP78   ILE79   SER80  
 PRO81   GLN125  CYS126  GLY127  GLN128  HIS132  CO701  

> <Gold.Protein.RotatedAtoms>
  -18.0267   27.6447  -13.4841 H   0  0  0  0  0  0  0  0  0  0  0  0  # atno 1849 bound_to 621 
  -18.9838   28.8507  -12.9571 LP  0  0  0  0  0  0  0  0  0  0  0  0  # atno 2431 bound_to 621 
  -19.5772   27.7181  -13.9728 LP  0  0  0  0  0  0  0  0  0  0  0  0  # atno 2432 bound_to 621 

$$$$
Compound 111|DecoysActives|sdf|118|dock3
  -GOLD-   6112412143D 1   1.00000     0.00000

 31 33  0  0  0  0  0  0  0  0  1 V2000
  -26.1903   32.5718  -18.4545 O   0  0  0  0  0  0  0  0  0  0  0  0
  -26.0810   31.2614  -18.8590 C   0  0  0  0  0  0  0  0  0  0  0  0
  -25.5905   32.8086  -17.1819 C   0  0  0  0  0  0  0  0  0  0  0  0
  -26.0370   30.2487  -17.9727 N   0  0  0  0  0  0  0  0  0  0  0  0
  -26.0137   30.9537  -20.1917 C   0  0  0  0  0  0  0  0  0  0  0  0
  -25.8536   34.2496  -16.8175 C   0  0  0  0  0  0  0  0  0  0  0  0
  -25.9296   28.9909  -18.4381 C   0  0  0  0  0  0  0  0  0  0  0  0
  -26.0268   31.6688  -21.3522 N   0  0  0  0  0  0  0  0  0  0  0  0
  -25.9046   29.6383  -20.5848 C   0  0  0  0  0  0  0  0  0  0  0  0
  -26.8086   34.9983  -17.5202 C   0  0  0  0  0  0  0  0  0  0  0  0
  -25.1767   34.8471  -15.7448 C   0  0  0  0  0  0  0  0  0  0  0  0
  -25.8591   28.6147  -19.7163 N   0  0  0  0  0  0  0  0  0  0  0  0
  -25.8887   27.9986  -17.4998 N   0  0  0  0  0  0  0  0  0  0  0  0
  -25.9268   30.7742  -22.3840 C   0  0  0  0  0  0  0  0  0  0  0  0
  -25.8514   29.5400  -21.9501 N   0  0  0  0  0  0  0  0  0  0  0  0
  -27.0650   36.3249  -17.1701 C   0  0  0  0  0  0  0  0  0  0  0  0
  -25.4348   36.1740  -15.3964 C   0  0  0  0  0  0  0  0  0  0  0  0
  -25.9142   31.1873  -23.6516 N   0  0  0  0  0  0  0  0  0  0  0  0
  -26.3768   36.9127  -16.1103 C   0  0  0  0  0  0  0  0  0  0  0  0
  -24.5069   32.6354  -17.2206 H   0  0  0  0  0  0  0  0  0  0  0  0
  -26.0262   32.1543  -16.4152 H   0  0  0  0  0  0  0  0  0  0  0  0
  -26.0970   32.6711  -21.4363 H   0  0  0  0  0  0  0  0  0  0  0  0
  -27.3593   34.5494  -18.3442 H   0  0  0  0  0  0  0  0  0  0  0  0
  -24.4451   34.2796  -15.1738 H   0  0  0  0  0  0  0  0  0  0  0  0
  -25.9409   28.2700  -16.5329 H   0  0  0  0  0  0  0  0  0  0  0  0
  -25.8088   27.0473  -17.8101 H   0  0  0  0  0  0  0  0  0  0  0  0
  -27.8039   36.8992  -17.7231 H   0  0  0  0  0  0  0  0  0  0  0  0
  -24.9023   36.6305  -14.5662 H   0  0  0  0  0  0  0  0  0  0  0  0
  -25.9806   32.1842  -23.8356 H   0  0  0  0  0  0  0  0  0  0  0  0
  -25.8433   30.5925  -24.4666 H   0  0  0  0  0  0  0  0  0  0  0  0
  -26.5772   37.9457  -15.8382 H   0  0  0  0  0  0  0  0  0  0  0  0
  1  2  1  0  0  0  0
  1  3  1  0  0  0  0
  2  4  2  0  0  0  0
  2  5  1  0  0  0  0
  3  6  1  0  0  0  0
  3 20  1  0  0  0  0
  3 21  1  0  0  0  0
  4  7  1  0  0  0  0
  5  8  1  0  0  0  0
  5  9  2  0  0  0  0
  6 10  2  0  0  0  0
  6 11  1  0  0  0  0
  7 12  2  0  0  0  0
  7 13  1  0  0  0  0
  8 14  1  0  0  0  0
  8 22  1  0  0  0  0
  9 15  1  0  0  0  0
  9 12  1  0  0  0  0
 10 16  1  0  0  0  0
 10 23  1  0  0  0  0
 11 17  2  0  0  0  0
 11 24  1  0  0  0  0
 13 25  1  0  0  0  0
 13 26  1  0  0  0  0
 14 18  1  0  0  0  0
 14 15  2  0  0  0  0
 16 19  2  0  0  0  0
 16 27  1  0  0  0  0
 17 19  1  0  0  0  0
 17 28  1  0  0  0  0
 18 29  1  0  0  0  0
 18 30  1  0  0  0  0
 19 31  1  0  0  0  0
M  END
>  <Column 1>
Nc1nc(OCc2ccccc2)c2[nH]c(N)nc2n1 ZINC000000021194

>  <Total Molweight>
256.268

>  <cLogP>
1.0628

>  <cLogS>
-4.228

>  <H-Acceptors>
7

>  <H-Donors>
3

>  <Total Surface Area>
194.27

>  <MMFF94 Energy>
-150.36

> <Gold.Version>
5.8.1

> <Gold.Id.Protein>
ID|2FQT|mol2

> <Gold.PLP.Fitness>
48.5678

> <Gold.PLP.PLP>
-40.5524

> <Gold.PLP.part.hbond>
-3.0000

> <Gold.PLP.part.metal>
-0.6410

> <Gold.PLP.part.buried>
-0.1486

> <Gold.PLP.part.nonpolar>
-36.8827

> <Gold.PLP.part.repulsive>
0.5594

> <Gold.PLP.ligand.clash>
0.0000

> <Gold.PLP.ligand.torsion>
0.5268

> <Gold.PLP.Chemscore.Hbond>
1.3432

> <Gold.PLP.Chemscore.CHOScore>
0.0000

> <Gold.PLP.Chemscore.Metal>
0.8393

> <Gold.Chemscore.Hbonds>
donor molecule, donor type, donor heavy atom, donor atom, acceptor molecule, acceptor atom, score
      L1  H     8    22       P1   954  0.34
      L1  H    13    25       P1   426  1.00
      P1  M  1222  1222       L1     4  0.84

> <Gold.PLP.Chemscore.Internal.Correction>
0.0037

> <Gold.Protein.RotatedTorsions>
[ 1849  621  620  617 ] final  102.82 input   60.00 | X-H torsion

> <Gold.Protein.ActiveResidues>
 HIS54   GLU57   HIS58   ALA61   PHE62   ILE76   ILE77   ASP78   ILE79   SER80  
 PRO81   GLN125  CYS126  GLY127  GLN128  HIS132  CO701  

> <Gold.Protein.RotatedAtoms>
  -18.0333   28.2340  -13.0650 H   0  0  0  0  0  0  0  0  0  0  0  0  # atno 1849 bound_to 621 
  -19.5875   28.6488  -13.3110 LP  0  0  0  0  0  0  0  0  0  0  0  0  # atno 2431 bound_to 621 
  -18.9670   27.3264  -14.0410 LP  0  0  0  0  0  0  0  0  0  0  0  0  # atno 2432 bound_to 621 

$$$$
Compound 112|DecoysActives|sdf|119|dock6
  -GOLD-   6112412143D 1   1.00000     0.00000

 29 30  0  0  0  0  0  0  0  0  1 V2000
  -26.7765   29.9496  -19.7710 O   0  0  0  0  0  0  0  0  0  0  0  0
  -26.6071   28.8049  -19.0059 N   0  0  0  0  0  0  0  0  0  0  0  0
  -26.1855   31.0198  -19.1559 C   0  0  0  0  0  0  0  0  0  0  0  0
  -25.9123   29.2023  -17.9387 C   0  0  0  0  0  0  0  0  0  0  0  0
  -26.2993   32.1962  -19.8050 N   0  0  0  0  0  0  0  0  0  0  0  0
  -25.6112   30.5779  -17.9828 C   0  0  0  0  0  0  0  0  0  0  0  0
  -25.7455   33.4339  -19.3189 C   0  0  0  0  0  0  0  0  0  0  0  0
  -24.8696   31.3258  -17.0264 C   0  0  0  0  0  0  0  0  0  0  0  0
  -25.2992   32.4850  -16.4965 C   0  0  0  0  0  0  0  0  0  0  0  0
  -23.5367   30.7099  -16.6454 C   0  0  0  0  0  0  0  0  0  0  0  0
  -24.4770   33.2301  -15.4844 C   0  0  0  0  0  0  0  0  0  0  0  0
  -22.6149   31.6725  -16.0045 N   0  0  0  0  0  0  0  0  0  0  0  0
  -23.3050   32.4007  -14.9291 C   0  0  0  0  0  0  0  0  0  0  0  0
  -21.4321   30.9829  -15.4944 C   0  0  0  0  0  0  0  0  0  0  0  0
  -25.6544   28.4735  -17.1837 H   0  0  0  0  0  0  0  0  0  0  0  0
  -26.8543   32.2386  -20.6540 H   0  0  0  0  0  0  0  0  0  0  0  0
  -24.6527   33.4010  -19.2973 H   0  0  0  0  0  0  0  0  0  0  0  0
  -26.1268   33.6789  -18.3228 H   0  0  0  0  0  0  0  0  0  0  0  0
  -26.0339   34.2500  -19.9896 H   0  0  0  0  0  0  0  0  0  0  0  0
  -26.2462   32.9223  -16.8005 H   0  0  0  0  0  0  0  0  0  0  0  0
  -23.0399   30.3142  -17.5404 H   0  0  0  0  0  0  0  0  0  0  0  0
  -23.7306   29.8595  -15.9765 H   0  0  0  0  0  0  0  0  0  0  0  0
  -25.1195   33.5405  -14.6525 H   0  0  0  0  0  0  0  0  0  0  0  0
  -24.0937   34.1418  -15.9586 H   0  0  0  0  0  0  0  0  0  0  0  0
  -22.6111   33.0865  -14.4276 H   0  0  0  0  0  0  0  0  0  0  0  0
  -23.6756   31.7026  -14.1659 H   0  0  0  0  0  0  0  0  0  0  0  0
  -20.7226   31.7016  -15.0697 H   0  0  0  0  0  0  0  0  0  0  0  0
  -21.6809   30.2471  -14.7211 H   0  0  0  0  0  0  0  0  0  0  0  0
  -20.9079   30.4667  -16.3065 H   0  0  0  0  0  0  0  0  0  0  0  0
  1  2  1  0  0  0  0
  1  3  1  0  0  0  0
  2  4  2  0  0  0  0
  3  5  1  0  0  0  0
  3  6  2  0  0  0  0
  4  6  1  0  0  0  0
  4 15  1  0  0  0  0
  5  7  1  0  0  0  0
  5 16  1  0  0  0  0
  6  8  1  0  0  0  0
  7 17  1  0  0  0  0
  7 18  1  0  0  0  0
  7 19  1  0  0  0  0
  8  9  2  0  0  0  0
  8 10  1  0  0  0  0
  9 11  1  0  0  0  0
  9 20  1  0  0  0  0
 10 12  1  0  0  0  0
 10 21  1  0  0  0  0
 10 22  1  0  0  0  0
 11 13  1  0  0  0  0
 11 23  1  0  0  0  0
 11 24  1  0  0  0  0
 12 14  1  0  0  0  0
 12 13  1  0  0  0  0
 13 25  1  0  0  0  0
 13 26  1  0  0  0  0
 14 27  1  0  0  0  0
 14 28  1  0  0  0  0
 14 29  1  0  0  0  0
M  END
>  <Column 1>
CNc1oncc1C1=CCCN(C)C1 ZINC000000021868

>  <Total Molweight>
193.249

>  <cLogP>
0.3859

>  <cLogS>
-1.174

>  <H-Acceptors>
4

>  <H-Donors>
1

>  <Total Surface Area>
160.48

>  <MMFF94 Energy>
35.22

> <Gold.Version>
5.8.1

> <Gold.Id.Protein>
ID|2FQT|mol2

> <Gold.PLP.Fitness>
43.6662

> <Gold.PLP.PLP>
-26.2099

> <Gold.PLP.part.hbond>
-2.0000

> <Gold.PLP.part.metal>
-2.0000

> <Gold.PLP.part.buried>
2.4548

> <Gold.PLP.part.nonpolar>
-25.5928

> <Gold.PLP.part.repulsive>
0.2690

> <Gold.PLP.ligand.clash>
0.0000

> <Gold.PLP.ligand.torsion>
0.8875

> <Gold.PLP.Chemscore.Hbond>
1.5754

> <Gold.PLP.Chemscore.CHOScore>
0.8546

> <Gold.PLP.Chemscore.Metal>
1.9902

> <Gold.Chemscore.Hbonds>
donor molecule, donor type, donor heavy atom, donor atom, acceptor molecule, acceptor atom, score
      L1  H     5    16       P1   954  0.83
      P1  H   966  2177       L1     1  0.74
      L1  C     4    15       P1   426  0.85
      P1  M  1222  1222       L1     1  1.00
      P1  M  1222  1222       L1     2  1.00

> <Gold.PLP.Chemscore.Internal.Correction>
0.0001

> <Gold.Protein.RotatedTorsions>
[ 1849  621  620  617 ] final   90.67 input   60.00 | X-H torsion

> <Gold.Protein.ActiveResidues>
 HIS54   GLU57   HIS58   ALA61   PHE62   ILE76   ILE77   ASP78   ILE79   SER80  
 PRO81   GLN125  CYS126  GLY127  GLN128  HIS132  CO701  

> <Gold.Protein.RotatedAtoms>
  -18.1266   28.3899  -12.9860 H   0  0  0  0  0  0  0  0  0  0  0  0  # atno 1849 bound_to 621 
  -19.6854   28.5253  -13.4332 LP  0  0  0  0  0  0  0  0  0  0  0  0  # atno 2431 bound_to 621 
  -18.7750   27.2930  -13.9982 LP  0  0  0  0  0  0  0  0  0  0  0  0  # atno 2432 bound_to 621 

$$$$
Compound 113|DecoysActives|sdf|120|dock1
  -GOLD-   6112412143D 1   1.00000     0.00000

 25 26  0  0  0  0  0  0  0  0  1 V2000
  -25.2947   33.4081  -16.3314 S   0  0  0  0  0  0  0  0  0  0  0  0
  -26.1723   34.7825  -16.9314 C   0  0  0  0  0  0  0  0  0  0  0  0
  -25.5150   32.5944  -17.8164 C   0  0  0  0  0  0  0  0  0  0  0  0
  -26.5948   34.6248  -18.1709 N   0  0  0  0  0  0  0  0  0  0  0  0
  -26.3934   35.9162  -16.2073 N   0  0  0  0  0  0  0  0  0  0  0  0
  -26.2275   33.3953  -18.6750 C   0  0  0  0  0  0  0  0  0  0  0  0
  -27.4018   36.9180  -16.5618 C   0  0  0  0  0  0  0  0  0  0  0  0
  -25.2997   36.4706  -15.3988 C   0  0  0  0  0  0  0  0  0  0  0  0
  -26.7252   38.0911  -17.3146 C   0  0  0  0  0  0  0  0  0  0  0  0
  -24.6345   37.6421  -16.1601 C   0  0  0  0  0  0  0  0  0  0  0  0
  -25.6099   38.6944  -16.5448 N   0  0  0  0  0  0  0  0  0  0  0  0
  -24.9534   39.7424  -17.3228 C   0  0  0  0  0  0  0  0  0  0  0  0
  -25.1232   31.6028  -17.9872 H   0  0  0  0  0  0  0  0  0  0  0  0
  -26.5087   33.1334  -19.6873 H   0  0  0  0  0  0  0  0  0  0  0  0
  -28.2242   36.5189  -17.1631 H   0  0  0  0  0  0  0  0  0  0  0  0
  -27.8606   37.2983  -15.6397 H   0  0  0  0  0  0  0  0  0  0  0  0
  -25.7129   36.8408  -14.4514 H   0  0  0  0  0  0  0  0  0  0  0  0
  -24.5463   35.7214  -15.1294 H   0  0  0  0  0  0  0  0  0  0  0  0
  -27.4850   38.8571  -17.5104 H   0  0  0  0  0  0  0  0  0  0  0  0
  -26.3623   37.7285  -18.2857 H   0  0  0  0  0  0  0  0  0  0  0  0
  -23.8658   38.0809  -15.5129 H   0  0  0  0  0  0  0  0  0  0  0  0
  -24.1312   37.2483  -17.0533 H   0  0  0  0  0  0  0  0  0  0  0  0
  -25.6658   40.5357  -17.5747 H   0  0  0  0  0  0  0  0  0  0  0  0
  -24.1543   40.2107  -16.7376 H   0  0  0  0  0  0  0  0  0  0  0  0
  -24.5201   39.3601  -18.2540 H   0  0  0  0  0  0  0  0  0  0  0  0
  1  2  1  0  0  0  0
  1  3  1  0  0  0  0
  2  4  2  0  0  0  0
  2  5  1  0  0  0  0
  3  6  2  0  0  0  0
  3 13  1  0  0  0  0
  4  6  1  0  0  0  0
  5  7  1  0  0  0  0
  5  8  1  0  0  0  0
  6 14  1  0  0  0  0
  7  9  1  0  0  0  0
  7 15  1  0  0  0  0
  7 16  1  0  0  0  0
  8 10  1  0  0  0  0
  8 17  1  0  0  0  0
  8 18  1  0  0  0  0
  9 11  1  0  0  0  0
  9 19  1  0  0  0  0
  9 20  1  0  0  0  0
 10 11  1  0  0  0  0
 10 21  1  0  0  0  0
 10 22  1  0  0  0  0
 11 12  1  0  0  0  0
 12 23  1  0  0  0  0
 12 24  1  0  0  0  0
 12 25  1  0  0  0  0
M  END
>  <Column 1>
CN1CCN(c2nccs2)CC1 ZINC000000022036

>  <Total Molweight>
183.278

>  <cLogP>
1.0633

>  <cLogS>
-0.954

>  <H-Acceptors>
3

>  <H-Donors>
0

>  <Total Surface Area>
142.36

>  <MMFF94 Energy>
51.449

> <Gold.Version>
5.8.1

> <Gold.Id.Protein>
ID|2FQT|mol2

> <Gold.PLP.Fitness>
38.2110

> <Gold.PLP.PLP>
-35.8722

> <Gold.PLP.part.hbond>
0.0000

> <Gold.PLP.part.metal>
0.0000

> <Gold.PLP.part.buried>
-3.6330

> <Gold.PLP.part.nonpolar>
-32.4272

> <Gold.PLP.part.repulsive>
0.0701

> <Gold.PLP.ligand.clash>
0.0000

> <Gold.PLP.ligand.torsion>
0.4065

> <Gold.PLP.Chemscore.Hbond>
0.0000

> <Gold.PLP.Chemscore.CHOScore>
1.0000

> <Gold.PLP.Chemscore.Metal>
0.0000

> <Gold.Chemscore.Hbonds>
donor molecule, donor type, donor heavy atom, donor atom, acceptor molecule, acceptor atom, score
      L1  C     6    14       P1   954  1.00

> <Gold.PLP.Chemscore.Internal.Correction>
0.1517

> <Gold.Protein.RotatedTorsions>
[ 1849  621  620  617 ] final -133.10 input   60.00 | X-H torsion

> <Gold.Protein.ActiveResidues>
 HIS54   GLU57   HIS58   ALA61   PHE62   ILE76   ILE77   ASP78   ILE79   SER80  
 PRO81   GLN125  CYS126  GLY127  GLN128  HIS132  CO701  

> <Gold.Protein.RotatedAtoms>
  -19.0303   27.3490  -14.0438 H   0  0  0  0  0  0  0  0  0  0  0  0  # atno 1849 bound_to 621 
  -18.0034   28.1817  -13.0950 LP  0  0  0  0  0  0  0  0  0  0  0  0  # atno 2431 bound_to 621 
  -19.5470   28.6847  -13.2712 LP  0  0  0  0  0  0  0  0  0  0  0  0  # atno 2432 bound_to 621 

$$$$
Compound 114|DecoysActives|sdf|121|dock4
  -GOLD-   6112412143D 1   1.00000     0.00000

 38 40  0  0  0  0  0  0  0  0  1 V2000
  -27.0943   29.5332  -20.0927 O   0  0  0  0  0  0  0  0  0  0  0  0
  -26.2720   29.3375  -19.1935 C   0  0  0  0  0  0  0  0  0  0  0  0
  -25.4953   30.3771  -18.6813 N   0  0  0  0  0  0  0  0  0  0  0  0
  -26.1361   27.9427  -18.6659 C   0  0  0  0  0  0  0  0  0  0  0  0
  -24.3080   30.2463  -17.8260 C   0  0  0  0  0  0  0  0  0  0  0  0
  -25.8789   31.7487  -19.0403 C   0  0  0  0  0  0  0  0  0  0  0  0
  -25.4374   27.7586  -17.5140 N   0  0  0  0  0  0  0  0  0  0  0  0
  -26.7987   26.9127  -19.3275 C   0  0  0  0  0  0  0  0  0  0  0  0
  -24.3921   31.1803  -16.6112 C   0  0  0  0  0  0  0  0  0  0  0  0
  -24.9904   32.8174  -18.3893 C   0  0  0  0  0  0  0  0  0  0  0  0
  -25.3872   26.4996  -17.0278 C   0  0  0  0  0  0  0  0  0  0  0  0
  -26.7205   25.6262  -18.8017 C   0  0  0  0  0  0  0  0  0  0  0  0
  -24.7969   32.5490  -16.9579 N   0  0  0  0  0  0  0  0  0  0  0  0
  -26.0011   25.4131  -17.6308 C   0  0  0  0  0  0  0  0  0  0  0  0
  -24.9408   33.4611  -15.9122 C   0  0  0  0  0  0  0  0  0  0  0  0
  -24.5227   33.2095  -14.7786 O   0  0  0  0  0  0  0  0  0  0  0  0
  -25.6125   34.7816  -16.1293 C   0  0  0  0  0  0  0  0  0  0  0  0
  -26.7881   34.7979  -16.8126 N   0  0  0  0  0  0  0  0  0  0  0  0
  -25.0513   35.9172  -15.5523 C   0  0  0  0  0  0  0  0  0  0  0  0
  -27.4032   35.9939  -16.9361 C   0  0  0  0  0  0  0  0  0  0  0  0
  -25.7092   37.1344  -15.7046 C   0  0  0  0  0  0  0  0  0  0  0  0
  -26.9069   37.1761  -16.4100 C   0  0  0  0  0  0  0  0  0  0  0  0
  -23.4532   30.5354  -18.4514 H   0  0  0  0  0  0  0  0  0  0  0  0
  -24.1049   29.2223  -17.5176 H   0  0  0  0  0  0  0  0  0  0  0  0
  -25.8506   31.8452  -20.1317 H   0  0  0  0  0  0  0  0  0  0  0  0
  -26.9202   31.8857  -18.7238 H   0  0  0  0  0  0  0  0  0  0  0  0
  -27.3713   27.1118  -20.2280 H   0  0  0  0  0  0  0  0  0  0  0  0
  -25.1305   30.7969  -15.8963 H   0  0  0  0  0  0  0  0  0  0  0  0
  -23.4253   31.2215  -16.0967 H   0  0  0  0  0  0  0  0  0  0  0  0
  -23.9897   32.7851  -18.8397 H   0  0  0  0  0  0  0  0  0  0  0  0
  -25.3669   33.8174  -18.5974 H   0  0  0  0  0  0  0  0  0  0  0  0
  -24.8237   26.3813  -16.1062 H   0  0  0  0  0  0  0  0  0  0  0  0
  -27.2265   24.8010  -19.2954 H   0  0  0  0  0  0  0  0  0  0  0  0
  -25.9282   24.4236  -17.1922 H   0  0  0  0  0  0  0  0  0  0  0  0
  -24.1263   35.8514  -14.9882 H   0  0  0  0  0  0  0  0  0  0  0  0
  -28.3408   35.9778  -17.4853 H   0  0  0  0  0  0  0  0  0  0  0  0
  -25.2961   38.0386  -15.2664 H   0  0  0  0  0  0  0  0  0  0  0  0
  -27.4470   38.1079  -16.5392 H   0  0  0  0  0  0  0  0  0  0  0  0
  1  2  2  0  0  0  0
  2  3  1  0  0  0  0
  2  4  1  0  0  0  0
  3  5  1  0  0  0  0
  3  6  1  0  0  0  0
  4  7  2  0  0  0  0
  4  8  1  0  0  0  0
  5  9  1  0  0  0  0
  5 23  1  0  0  0  0
  5 24  1  0  0  0  0
  6 10  1  0  0  0  0
  6 25  1  0  0  0  0
  6 26  1  0  0  0  0
  7 11  1  0  0  0  0
  8 12  2  0  0  0  0
  8 27  1  0  0  0  0
  9 13  1  0  0  0  0
  9 28  1  0  0  0  0
  9 29  1  0  0  0  0
 10 13  1  0  0  0  0
 10 30  1  0  0  0  0
 10 31  1  0  0  0  0
 11 14  2  0  0  0  0
 11 32  1  0  0  0  0
 12 14  1  0  0  0  0
 12 33  1  0  0  0  0
 13 15  1  0  0  0  0
 14 34  1  0  0  0  0
 15 16  2  0  0  0  0
 15 17  1  0  0  0  0
 17 18  2  0  0  0  0
 17 19  1  0  0  0  0
 18 20  1  0  0  0  0
 19 21  2  0  0  0  0
 19 35  1  0  0  0  0
 20 22  2  0  0  0  0
 20 36  1  0  0  0  0
 21 22  1  0  0  0  0
 21 37  1  0  0  0  0
 22 38  1  0  0  0  0
M  END
>  <Column 1>
O=C(c1ccccn1)N1CCN(C(=O)c2ccccn2)CC1 ZINC000000022418

>  <Total Molweight>
296.329

>  <cLogP>
1.05

>  <cLogS>
-0.738

>  <H-Acceptors>
6

>  <H-Donors>
0

>  <Total Surface Area>
228.18

>  <MMFF94 Energy>
145.25

> <Gold.Version>
5.8.1

> <Gold.Id.Protein>
ID|2FQT|mol2

> <Gold.PLP.Fitness>
55.2395

> <Gold.PLP.PLP>
-45.3975

> <Gold.PLP.part.hbond>
-1.6854

> <Gold.PLP.part.metal>
-1.0000

> <Gold.PLP.part.buried>
1.3481

> <Gold.PLP.part.nonpolar>
-47.2691

> <Gold.PLP.part.repulsive>
0.8830

> <Gold.PLP.ligand.clash>
0.0072

> <Gold.PLP.ligand.torsion>
0.9384

> <Gold.PLP.Chemscore.Hbond>
0.8450

> <Gold.PLP.Chemscore.CHOScore>
0.9109

> <Gold.PLP.Chemscore.Metal>
0.9865

> <Gold.Chemscore.Hbonds>
donor molecule, donor type, donor heavy atom, donor atom, acceptor molecule, acceptor atom, score
      P1  H   966  2177       L1     1  0.84
      L1  C    11    32       P1   427  0.91
      P1  M  1222  1222       L1     1  0.99

> <Gold.PLP.Chemscore.Internal.Correction>
0.5392

> <Gold.Protein.RotatedTorsions>
[ 1849  621  620  617 ] final  133.48 input   60.00 | X-H torsion

> <Gold.Protein.ActiveResidues>
 HIS54   GLU57   HIS58   ALA61   PHE62   ILE76   ILE77   ASP78   ILE79   SER80  
 PRO81   GLN125  CYS126  GLY127  GLN128  HIS132  CO701  

> <Gold.Protein.RotatedAtoms>
  -17.9676   27.8243  -13.3351 H   0  0  0  0  0  0  0  0  0  0  0  0  # atno 1849 bound_to 621 
  -19.2090   28.8359  -13.0458 LP  0  0  0  0  0  0  0  0  0  0  0  0  # atno 2431 bound_to 621 
  -19.4116   27.5519  -14.0341 LP  0  0  0  0  0  0  0  0  0  0  0  0  # atno 2432 bound_to 621 

$$$$
Compound 115|DecoysActives|sdf|122|dock16
  -GOLD-   6112412143D 1   1.00000     0.00000

 34 37  0  0  0  0  0  0  0  0  1 V2000
  -21.4261   34.9257  -16.4391 S   0  0  0  0  0  0  0  0  0  0  0  0
  -22.1250   33.4712  -17.0213 N   0  0  0  0  0  0  0  0  0  0  0  0
  -22.9498   35.7007  -16.3468 C   0  0  0  0  0  0  0  0  0  0  0  0
  -23.4231   33.5939  -17.1526 C   0  0  0  0  0  0  0  0  0  0  0  0
  -23.3880   36.8756  -15.9980 N   0  0  0  0  0  0  0  0  0  0  0  0
  -23.9066   34.8342  -16.7387 N   0  0  0  0  0  0  0  0  0  0  0  0
  -24.2601   32.6073  -17.6441 N   0  0  0  0  0  0  0  0  0  0  0  0
  -24.7567   36.7359  -16.1192 C   0  0  0  0  0  0  0  0  0  0  0  0
  -25.1189   35.4501  -16.5544 C   0  0  0  0  0  0  0  0  0  0  0  0
  -24.7443   31.5524  -16.7318 C   0  0  0  0  0  0  0  0  0  0  0  0
  -25.2729   32.9915  -18.6463 C   0  0  0  0  0  0  0  0  0  0  0  0
  -25.7641   37.6750  -15.8490 C   0  0  0  0  0  0  0  0  0  0  0  0
  -26.4532   35.0481  -16.6819 C   0  0  0  0  0  0  0  0  0  0  0  0
  -25.2884   30.3394  -17.5169 C   0  0  0  0  0  0  0  0  0  0  0  0
  -25.7986   31.7542  -19.4032 C   0  0  0  0  0  0  0  0  0  0  0  0
  -27.1029   37.2956  -15.9996 C   0  0  0  0  0  0  0  0  0  0  0  0
  -27.4383   36.0019  -16.4014 C   0  0  0  0  0  0  0  0  0  0  0  0
  -26.3305   30.7193  -18.4916 N   0  0  0  0  0  0  0  0  0  0  0  0
  -26.7892   29.5531  -19.2436 C   0  0  0  0  0  0  0  0  0  0  0  0
  -23.9482   31.2141  -16.0610 H   0  0  0  0  0  0  0  0  0  0  0  0
  -25.5381   31.9678  -16.0977 H   0  0  0  0  0  0  0  0  0  0  0  0
  -26.1034   33.5099  -18.1509 H   0  0  0  0  0  0  0  0  0  0  0  0
  -24.8331   33.6835  -19.3745 H   0  0  0  0  0  0  0  0  0  0  0  0
  -25.4992   38.6729  -15.5163 H   0  0  0  0  0  0  0  0  0  0  0  0
  -26.7245   34.0389  -16.9670 H   0  0  0  0  0  0  0  0  0  0  0  0
  -25.7037   29.6241  -16.7969 H   0  0  0  0  0  0  0  0  0  0  0  0
  -24.4557   29.8415  -18.0302 H   0  0  0  0  0  0  0  0  0  0  0  0
  -26.5896   32.0816  -20.0882 H   0  0  0  0  0  0  0  0  0  0  0  0
  -24.9852   31.3390  -20.0135 H   0  0  0  0  0  0  0  0  0  0  0  0
  -27.8893   38.0160  -15.7858 H   0  0  0  0  0  0  0  0  0  0  0  0
  -28.4879   35.7273  -16.4911 H   0  0  0  0  0  0  0  0  0  0  0  0
  -27.2129   28.8031  -18.5668 H   0  0  0  0  0  0  0  0  0  0  0  0
  -25.9815   29.0834  -19.8164 H   0  0  0  0  0  0  0  0  0  0  0  0
  -27.5864   29.8353  -19.9400 H   0  0  0  0  0  0  0  0  0  0  0  0
  1  2  1  0  0  0  0
  1  3  1  0  0  0  0
  2  4  2  0  0  0  0
  3  5  2  0  0  0  0
  3  6  1  0  0  0  0
  4  7  1  0  0  0  0
  4  6  1  0  0  0  0
  5  8  1  0  0  0  0
  6  9  1  0  0  0  0
  7 10  1  0  0  0  0
  7 11  1  0  0  0  0
  8 12  1  0  0  0  0
  8  9  2  0  0  0  0
  9 13  1  0  0  0  0
 10 14  1  0  0  0  0
 10 20  1  0  0  0  0
 10 21  1  0  0  0  0
 11 15  1  0  0  0  0
 11 22  1  0  0  0  0
 11 23  1  0  0  0  0
 12 16  2  0  0  0  0
 12 24  1  0  0  0  0
 13 17  2  0  0  0  0
 13 25  1  0  0  0  0
 14 18  1  0  0  0  0
 14 26  1  0  0  0  0
 14 27  1  0  0  0  0
 15 18  1  0  0  0  0
 15 28  1  0  0  0  0
 15 29  1  0  0  0  0
 16 17  1  0  0  0  0
 16 30  1  0  0  0  0
 17 31  1  0  0  0  0
 18 19  1  0  0  0  0
 19 32  1  0  0  0  0
 19 33  1  0  0  0  0
 19 34  1  0  0  0  0
M  END
>  <Column 1>
CN1CCN(c2nsc3nc4ccccc4n23)CC1 ZINC000000022789

>  <Total Molweight>
273.363

>  <cLogP>
2.25

>  <cLogS>
-0.565

>  <H-Acceptors>
5

>  <H-Donors>
0

>  <Total Surface Area>
200.97

>  <MMFF94 Energy>
108.15

> <Gold.Version>
5.8.1

> <Gold.Id.Protein>
ID|2FQT|mol2

> <Gold.PLP.Fitness>
40.2567

> <Gold.PLP.PLP>
-34.8264

> <Gold.PLP.part.hbond>
0.0000

> <Gold.PLP.part.metal>
-1.0000

> <Gold.PLP.part.buried>
3.5859

> <Gold.PLP.part.nonpolar>
-38.2823

> <Gold.PLP.part.repulsive>
0.1027

> <Gold.PLP.ligand.clash>
0.0000

> <Gold.PLP.ligand.torsion>
0.5006

> <Gold.PLP.Chemscore.Hbond>
0.0000

> <Gold.PLP.Chemscore.CHOScore>
0.0000

> <Gold.PLP.Chemscore.Metal>
0.9951

> <Gold.Chemscore.Hbonds>
donor molecule, donor type, donor heavy atom, donor atom, acceptor molecule, acceptor atom, score
      P1  M  1222  1222       L1    18  1.00

> <Gold.PLP.Chemscore.Internal.Correction>
0.4610

> <Gold.Protein.RotatedTorsions>
[ 1849  621  620  617 ] final -132.00 input   60.00 | X-H torsion

> <Gold.Protein.ActiveResidues>
 HIS54   GLU57   HIS58   ALA61   PHE62   ILE76   ILE77   ASP78   ILE79   SER80  
 PRO81   GLN125  CYS126  GLY127  GLN128  HIS132  CO701  

> <Gold.Protein.RotatedAtoms>
  -19.0472   27.3547  -14.0457 H   0  0  0  0  0  0  0  0  0  0  0  0  # atno 1849 bound_to 621 
  -17.9979   28.1669  -13.1037 LP  0  0  0  0  0  0  0  0  0  0  0  0  # atno 2431 bound_to 621 
  -19.5355   28.6939  -13.2607 LP  0  0  0  0  0  0  0  0  0  0  0  0  # atno 2432 bound_to 621 

$$$$
Compound 116|DecoysActives|sdf|123|dock3
  -GOLD-   6112412143D 1   1.00000     0.00000

 35 36  0  0  0  0  0  0  0  0  1 V2000
  -26.2659   29.4999  -18.8821 S   0  0  0  0  0  0  0  0  0  0  0  0
  -26.4700   28.6005  -17.7717 O   0  0  0  0  0  0  0  0  0  0  0  0
  -27.0894   29.4288  -20.0678 O   0  0  0  0  0  0  0  0  0  0  0  0
  -26.3263   31.0906  -18.3028 N   0  0  0  0  0  0  0  0  0  0  0  0
  -24.6662   29.4096  -19.3899 N   0  0  0  0  0  0  0  0  0  0  0  0
  -26.1915   32.1554  -19.3504 C   0  0  0  0  0  0  0  0  0  0  0  0
  -25.3354   31.3678  -17.2075 C   0  0  0  0  0  0  0  0  0  0  0  0
  -24.3624   29.2828  -20.8167 C   0  0  0  0  0  0  0  0  0  0  0  0
  -23.7334   28.6839  -18.5154 C   0  0  0  0  0  0  0  0  0  0  0  0
  -26.4997   33.5411  -18.7588 C   0  0  0  0  0  0  0  0  0  0  0  0
  -25.6007   32.7405  -16.5634 C   0  0  0  0  0  0  0  0  0  0  0  0
  -25.6953   33.8040  -17.5656 N   0  0  0  0  0  0  0  0  0  0  0  0
  -25.6310   35.1095  -17.1156 C   0  0  0  0  0  0  0  0  0  0  0  0
  -25.6803   36.1093  -18.0135 N   0  0  0  0  0  0  0  0  0  0  0  0
  -25.5111   35.3367  -15.7961 N   0  0  0  0  0  0  0  0  0  0  0  0
  -25.5999   37.3729  -17.5544 C   0  0  0  0  0  0  0  0  0  0  0  0
  -25.4341   36.6152  -15.3807 C   0  0  0  0  0  0  0  0  0  0  0  0
  -25.4739   37.6902  -16.2281 C   0  0  0  0  0  0  0  0  0  0  0  0
  -26.8788   31.9767  -20.1790 H   0  0  0  0  0  0  0  0  0  0  0  0
  -25.1691   32.1487  -19.7486 H   0  0  0  0  0  0  0  0  0  0  0  0
  -24.3192   31.3356  -17.6189 H   0  0  0  0  0  0  0  0  0  0  0  0
  -25.4162   30.6122  -16.4197 H   0  0  0  0  0  0  0  0  0  0  0  0
  -24.2738   28.2328  -21.1094 H   0  0  0  0  0  0  0  0  0  0  0  0
  -25.1153   29.7693  -21.4418 H   0  0  0  0  0  0  0  0  0  0  0  0
  -23.4094   29.7792  -21.0284 H   0  0  0  0  0  0  0  0  0  0  0  0
  -23.8790   27.6033  -18.6025 H   0  0  0  0  0  0  0  0  0  0  0  0
  -23.8516   28.9839  -17.4706 H   0  0  0  0  0  0  0  0  0  0  0  0
  -22.7010   28.9174  -18.7965 H   0  0  0  0  0  0  0  0  0  0  0  0
  -27.5641   33.5973  -18.4969 H   0  0  0  0  0  0  0  0  0  0  0  0
  -26.3066   34.2783  -19.5475 H   0  0  0  0  0  0  0  0  0  0  0  0
  -26.5397   32.6985  -15.9965 H   0  0  0  0  0  0  0  0  0  0  0  0
  -24.7863   32.9258  -15.8527 H   0  0  0  0  0  0  0  0  0  0  0  0
  -25.6404   38.1447  -18.3169 H   0  0  0  0  0  0  0  0  0  0  0  0
  -25.3350   36.7468  -14.3076 H   0  0  0  0  0  0  0  0  0  0  0  0
  -25.4095   38.7097  -15.8777 H   0  0  0  0  0  0  0  0  0  0  0  0
  1  2  2  0  0  0  0
  1  3  2  0  0  0  0
  1  4  1  0  0  0  0
  1  5  1  0  0  0  0
  4  6  1  0  0  0  0
  4  7  1  0  0  0  0
  5  8  1  0  0  0  0
  5  9  1  0  0  0  0
  6 10  1  0  0  0  0
  6 19  1  0  0  0  0
  6 20  1  0  0  0  0
  7 11  1  0  0  0  0
  7 21  1  0  0  0  0
  7 22  1  0  0  0  0
  8 23  1  0  0  0  0
  8 24  1  0  0  0  0
  8 25  1  0  0  0  0
  9 26  1  0  0  0  0
  9 27  1  0  0  0  0
  9 28  1  0  0  0  0
 10 12  1  0  0  0  0
 10 29  1  0  0  0  0
 10 30  1  0  0  0  0
 11 12  1  0  0  0  0
 11 31  1  0  0  0  0
 11 32  1  0  0  0  0
 12 13  1  0  0  0  0
 13 14  2  0  0  0  0
 13 15  1  0  0  0  0
 14 16  1  0  0  0  0
 15 17  2  0  0  0  0
 16 18  2  0  0  0  0
 16 33  1  0  0  0  0
 17 18  1  0  0  0  0
 17 34  1  0  0  0  0
 18 35  1  0  0  0  0
M  END
>  <Column 1>
CN(C)S(=O)(=O)N1CCN(c2ncccn2)CC1 ZINC000000023204

>  <Total Molweight>
271.344

>  <cLogP>
-0.2794

>  <cLogS>
-0.223

>  <H-Acceptors>
7

>  <H-Donors>
0

>  <Total Surface Area>
196.32

>  <MMFF94 Energy>
-179.36

> <Gold.Version>
5.8.1

> <Gold.Id.Protein>
ID|2FQT|mol2

> <Gold.PLP.Fitness>
52.2936

> <Gold.PLP.PLP>
-30.4907

> <Gold.PLP.part.hbond>
-0.7055

> <Gold.PLP.part.metal>
-2.8080

> <Gold.PLP.part.buried>
-0.3483

> <Gold.PLP.part.nonpolar>
-28.0368

> <Gold.PLP.part.repulsive>
0.6027

> <Gold.PLP.ligand.clash>
0.0000

> <Gold.PLP.ligand.torsion>
1.4180

> <Gold.PLP.Chemscore.Hbond>
0.8288

> <Gold.PLP.Chemscore.CHOScore>
0.9172

> <Gold.PLP.Chemscore.Metal>
2.8228

> <Gold.Chemscore.Hbonds>
donor molecule, donor type, donor heavy atom, donor atom, acceptor molecule, acceptor atom, score
      P1  H   966  2177       L1     3  0.83
      L1  C    17    34       P1   431  0.92
      P1  M  1222  1222       L1     2  0.94
      P1  M  1222  1222       L1     3  0.99
      P1  M  1222  1222       L1     4  0.90

> <Gold.PLP.Chemscore.Internal.Correction>
2.4643

> <Gold.Protein.RotatedTorsions>
[ 1849  621  620  617 ] final  -42.11 input   60.00 | X-H torsion

> <Gold.Protein.ActiveResidues>
 HIS54   GLU57   HIS58   ALA61   PHE62   ILE76   ILE77   ASP78   ILE79   SER80  
 PRO81   GLN125  CYS126  GLY127  GLN128  HIS132  CO701  

> <Gold.Protein.RotatedAtoms>
  -19.7429   28.3701  -13.5612 H   0  0  0  0  0  0  0  0  0  0  0  0  # atno 1849 bound_to 621 
  -18.5773   27.2954  -13.9279 LP  0  0  0  0  0  0  0  0  0  0  0  0  # atno 2431 bound_to 621 
  -18.2554   28.5428  -12.9243 LP  0  0  0  0  0  0  0  0  0  0  0  0  # atno 2432 bound_to 621 

$$$$
Compound 117|DecoysActives|sdf|124|dock1
  -GOLD-   6112412143D 1   1.00000     0.00000

 19 20  0  0  0  0  0  0  0  0  1 V2000
  -27.4649   38.4789  -17.7633 S   0  0  0  0  0  0  0  0  0  0  0  0
  -26.7342   37.1547  -17.0480 C   0  0  0  0  0  0  0  0  0  0  0  0
  -26.6569   35.9703  -17.7550 N   0  0  0  0  0  0  0  0  0  0  0  0
  -26.1563   37.1725  -15.6631 C   0  0  0  0  0  0  0  0  0  0  0  0
  -26.0617   34.8490  -17.2046 C   0  0  0  0  0  0  0  0  0  0  0  0
  -25.6157   36.0523  -15.1576 C   0  0  0  0  0  0  0  0  0  0  0  0
  -25.5734   34.8974  -15.9188 N   0  0  0  0  0  0  0  0  0  0  0  0
  -25.8261   33.5646  -17.6623 C   0  0  0  0  0  0  0  0  0  0  0  0
  -25.0885   33.6513  -15.6324 C   0  0  0  0  0  0  0  0  0  0  0  0
  -25.2220   32.8292  -16.6504 N   0  0  0  0  0  0  0  0  0  0  0  0
  -26.1207   33.0387  -18.9832 C   0  0  0  0  0  0  0  0  0  0  0  0
  -25.8964   31.4288  -19.3146 S   0  0  0  0  0  0  0  0  0  0  0  0
  -26.5837   33.9076  -19.9333 N   0  0  0  0  0  0  0  0  0  0  0  0
  -27.1055   35.9192  -18.6638 H   0  0  0  0  0  0  0  0  0  0  0  0
  -26.2056   38.0947  -15.0952 H   0  0  0  0  0  0  0  0  0  0  0  0
  -25.1977   36.0062  -14.1597 H   0  0  0  0  0  0  0  0  0  0  0  0
  -24.6508   33.4013  -14.6755 H   0  0  0  0  0  0  0  0  0  0  0  0
  -26.6720   33.5820  -20.8883 H   0  0  0  0  0  0  0  0  0  0  0  0
  -26.7244   34.8910  -19.7444 H   0  0  0  0  0  0  0  0  0  0  0  0
  1  2  2  0  0  0  0
  2  3  1  0  0  0  0
  2  4  1  0  0  0  0
  3  5  1  0  0  0  0
  3 14  1  0  0  0  0
  4  6  2  0  0  0  0
  4 15  1  0  0  0  0
  5  7  1  0  0  0  0
  5  8  2  0  0  0  0
  6  7  1  0  0  0  0
  6 16  1  0  0  0  0
  7  9  1  0  0  0  0
  8 10  1  0  0  0  0
  8 11  1  0  0  0  0
  9 10  2  0  0  0  0
  9 17  1  0  0  0  0
 11 12  2  0  0  0  0
 11 13  1  0  0  0  0
 13 18  1  0  0  0  0
 13 19  1  0  0  0  0
M  END
>  <Column 1>
NC(=S)c1ncn2ccc(=S)[nH]c12 ZINC000000023660

>  <Total Molweight>
210.285

>  <cLogP>
-0.2292

>  <cLogS>
-2.09

>  <H-Acceptors>
4

>  <H-Donors>
2

>  <Total Surface Area>
159.62

>  <MMFF94 Energy>
40.425

> <Gold.Version>
5.8.1

> <Gold.Id.Protein>
ID|2FQT|mol2

> <Gold.PLP.Fitness>
38.4351

> <Gold.PLP.PLP>
-34.9297

> <Gold.PLP.part.hbond>
-0.1758

> <Gold.PLP.part.metal>
0.0000

> <Gold.PLP.part.buried>
-2.1769

> <Gold.PLP.part.nonpolar>
-33.4364

> <Gold.PLP.part.repulsive>
0.1284

> <Gold.PLP.ligand.clash>
0.0000

> <Gold.PLP.ligand.torsion>
0.0180

> <Gold.PLP.Chemscore.Hbond>
0.5280

> <Gold.PLP.Chemscore.CHOScore>
0.6523

> <Gold.PLP.Chemscore.Metal>
0.0000

> <Gold.Chemscore.Hbonds>
donor molecule, donor type, donor heavy atom, donor atom, acceptor molecule, acceptor atom, score
      L1  H    13    18       P1   954  0.53
      L1  C     6    16       P1   431  0.65

> <Gold.PLP.Chemscore.Internal.Correction>
0.0004

> <Gold.Protein.RotatedTorsions>
[ 1849  621  620  617 ] final   57.97 input   60.00 | X-H torsion

> <Gold.Protein.ActiveResidues>
 HIS54   GLU57   HIS58   ALA61   PHE62   ILE76   ILE77   ASP78   ILE79   SER80  
 PRO81   GLN125  CYS126  GLY127  GLN128  HIS132  CO701  

> <Gold.Protein.RotatedAtoms>
  -18.5250   28.7207  -12.8877 H   0  0  0  0  0  0  0  0  0  0  0  0  # atno 1849 bound_to 621 
  -19.7587   28.1100  -13.7556 LP  0  0  0  0  0  0  0  0  0  0  0  0  # atno 2431 bound_to 621 
  -18.3006   27.3751  -13.7749 LP  0  0  0  0  0  0  0  0  0  0  0  0  # atno 2432 bound_to 621 

$$$$
Compound 118|DecoysActives|sdf|125|dock2
  -GOLD-   6112412143D 1   1.00000     0.00000

 23 23  0  0  0  0  0  0  0  0  1 V2000
  -23.8195   31.3793  -18.7657 O   0  0  0  0  0  0  0  0  0  0  0  0
  -25.2180   31.3453  -18.4767 C   0  0  1  0  0  0  0  0  0  0  0  0
  -25.6059   32.6710  -17.8596 C   0  0  0  0  0  0  0  0  0  0  0  0
  -26.0456   31.0534  -19.7538 C   0  0  2  0  0  0  0  0  0  0  0  0
  -26.3623   33.5892  -18.5836 C   0  0  0  0  0  0  0  0  0  0  0  0
  -25.2035   33.0479  -16.5734 C   0  0  0  0  0  0  0  0  0  0  0  0
  -27.3652   30.6166  -19.4141 O   0  0  0  0  0  0  0  0  0  0  0  0
  -25.4174   29.9526  -20.6029 C   0  0  0  0  0  0  0  0  0  0  0  0
  -26.7254   34.8082  -18.1236 N   0  0  0  0  0  0  0  0  0  0  0  0
  -25.5711   34.2921  -16.0656 C   0  0  0  0  0  0  0  0  0  0  0  0
  -26.3282   35.1338  -16.8689 C   0  0  0  0  0  0  0  0  0  0  0  0
  -26.7320   36.4293  -16.3953 C   0  0  0  0  0  0  0  0  0  0  0  0
  -27.0983   37.4594  -16.0004 N   0  0  0  0  0  0  0  0  0  0  0  0
  -23.6268   32.2535  -19.1467 H   0  0  0  0  0  0  0  0  0  0  0  0
  -25.3808   30.5560  -17.7317 H   0  0  0  0  0  0  0  0  0  0  0  0
  -26.1306   31.9530  -20.3762 H   0  0  0  0  0  0  0  0  0  0  0  0
  -26.7042   33.3678  -19.5929 H   0  0  0  0  0  0  0  0  0  0  0  0
  -24.6135   32.3681  -15.9612 H   0  0  0  0  0  0  0  0  0  0  0  0
  -27.6014   31.0368  -18.5670 H   0  0  0  0  0  0  0  0  0  0  0  0
  -24.4359   30.2460  -20.9864 H   0  0  0  0  0  0  0  0  0  0  0  0
  -26.0619   29.7149  -21.4565 H   0  0  0  0  0  0  0  0  0  0  0  0
  -25.3084   29.0283  -20.0250 H   0  0  0  0  0  0  0  0  0  0  0  0
  -25.2715   34.5882  -15.0649 H   0  0  0  0  0  0  0  0  0  0  0  0
  1  2  1  0  0  0  0
  1 14  1  0  0  0  0
  2  3  1  0  0  0  0
  2  4  1  0  0  0  0
  2 15  1  0  0  0  0
  3  5  2  0  0  0  0
  3  6  1  0  0  0  0
  4  7  1  0  0  0  0
  4  8  1  0  0  0  0
  4 16  1  0  0  0  0
  5  9  1  0  0  0  0
  5 17  1  0  0  0  0
  6 10  2  0  0  0  0
  6 18  1  0  0  0  0
  7 19  1  0  0  0  0
  8 20  1  0  0  0  0
  8 21  1  0  0  0  0
  8 22  1  0  0  0  0
  9 11  2  0  0  0  0
 10 11  1  0  0  0  0
 10 23  1  0  0  0  0
 11 12  1  0  0  0  0
 12 13  3  0  0  0  0
M  END
>  <Column 1>
C[C@@H](O)[C@@H](O)c1ccc(C#N)nc1 ZINC000000023802

>  <Total Molweight>
178.19

>  <cLogP>
-0.3297

>  <cLogS>
-1.444

>  <H-Acceptors>
4

>  <H-Donors>
2

>  <Total Surface Area>
143.69

>  <MMFF94 Energy>
78.416

> <Gold.Version>
5.8.1

> <Gold.Id.Protein>
ID|2FQT|mol2

> <Gold.PLP.Fitness>
42.0604

> <Gold.PLP.PLP>
-30.3340

> <Gold.PLP.part.hbond>
-0.2372

> <Gold.PLP.part.metal>
-0.6994

> <Gold.PLP.part.buried>
-3.2083

> <Gold.PLP.part.nonpolar>
-25.8397

> <Gold.PLP.part.repulsive>
0.1928

> <Gold.PLP.ligand.clash>
0.0000

> <Gold.PLP.ligand.torsion>
0.5564

> <Gold.PLP.Chemscore.Hbond>
1.2763

> <Gold.PLP.Chemscore.CHOScore>
1.0000

> <Gold.PLP.Chemscore.Metal>
1.0000

> <Gold.Chemscore.Hbonds>
donor molecule, donor type, donor heavy atom, donor atom, acceptor molecule, acceptor atom, score
      L1  H     7    19       P1   437  1.00
      P1  H   966  2177       L1     7  0.28
      L1  C     5    17       P1   954  1.00
      P1  M  1222  1222       L1     7  1.00

> <Gold.PLP.Chemscore.Internal.Correction>
0.0103

> <Gold.Protein.RotatedTorsions>
[ 1849  621  620  617 ] final -120.64 input   60.00 | X-H torsion

> <Gold.Protein.ActiveResidues>
 HIS54   GLU57   HIS58   ALA61   PHE62   ILE76   ILE77   ASP78   ILE79   SER80  
 PRO81   GLN125  CYS126  GLY127  GLN128  HIS132  CO701  

> <Gold.Protein.RotatedAtoms>
  -19.2172   27.4282  -14.0521 H   0  0  0  0  0  0  0  0  0  0  0  0  # atno 1849 bound_to 621 
  -17.9593   28.0123  -13.2008 LP  0  0  0  0  0  0  0  0  0  0  0  0  # atno 2431 bound_to 621 
  -19.4028   28.7745  -13.1570 LP  0  0  0  0  0  0  0  0  0  0  0  0  # atno 2432 bound_to 621 

$$$$
Compound 119|DecoysActives|sdf|126|dock2
  -GOLD-   6112412143D 1   1.00000     0.00000

 21 22  0  0  0  0  0  0  0  0  1 V2000
  -25.4303   31.5009  -18.4259 N   0  0  0  0  0  0  0  0  0  0  0  0
  -26.0374   32.3330  -19.2558 C   0  0  0  0  0  0  0  0  0  0  0  0
  -25.1903   31.9807  -17.2178 C   0  0  0  0  0  0  0  0  0  0  0  0
  -26.4024   33.5654  -18.9586 N   0  0  0  0  0  0  0  0  0  0  0  0
  -26.3081   31.8859  -20.5167 N   0  0  0  0  0  0  0  0  0  0  0  0
  -25.5081   33.1957  -16.8044 N   0  0  0  0  0  0  0  0  0  0  0  0
  -24.5652   31.1579  -16.3261 N   0  0  0  0  0  0  0  0  0  0  0  0
  -26.1180   33.9604  -17.7157 C   0  0  0  0  0  0  0  0  0  0  0  0
  -26.4993   35.3315  -17.3142 C   0  0  0  0  0  0  0  0  0  0  0  0
  -26.9010   35.5444  -16.0248 N   0  0  0  0  0  0  0  0  0  0  0  0
  -26.4597   36.4011  -18.2092 C   0  0  0  0  0  0  0  0  0  0  0  0
  -27.2419   36.8115  -15.6954 C   0  0  0  0  0  0  0  0  0  0  0  0
  -26.8018   37.6764  -17.8812 N   0  0  0  0  0  0  0  0  0  0  0  0
  -27.1936   37.8538  -16.6022 C   0  0  0  0  0  0  0  0  0  0  0  0
  -26.0381   30.9504  -20.7631 H   0  0  0  0  0  0  0  0  0  0  0  0
  -26.7697   32.5173  -21.1490 H   0  0  0  0  0  0  0  0  0  0  0  0
  -24.3197   30.2319  -16.6319 H   0  0  0  0  0  0  0  0  0  0  0  0
  -24.3725   31.5012  -15.4020 H   0  0  0  0  0  0  0  0  0  0  0  0
  -26.1458   36.2676  -19.2402 H   0  0  0  0  0  0  0  0  0  0  0  0
  -27.5583   36.9658  -14.6701 H   0  0  0  0  0  0  0  0  0  0  0  0
  -27.4700   38.8638  -16.3224 H   0  0  0  0  0  0  0  0  0  0  0  0
  1  2  2  0  0  0  0
  1  3  1  0  0  0  0
  2  4  1  0  0  0  0
  2  5  1  0  0  0  0
  3  6  2  0  0  0  0
  3  7  1  0  0  0  0
  4  8  2  0  0  0  0
  5 15  1  0  0  0  0
  5 16  1  0  0  0  0
  6  8  1  0  0  0  0
  7 17  1  0  0  0  0
  7 18  1  0  0  0  0
  8  9  1  0  0  0  0
  9 10  2  0  0  0  0
  9 11  1  0  0  0  0
 10 12  1  0  0  0  0
 11 13  2  0  0  0  0
 11 19  1  0  0  0  0
 12 14  2  0  0  0  0
 12 20  1  0  0  0  0
 13 14  1  0  0  0  0
 14 21  1  0  0  0  0
M  END
>  <Column 1>
Nc1nc(N)nc(-c2cnccn2)n1 ZINC000000023810

>  <Total Molweight>
189.182

>  <cLogP>
-0.9107

>  <cLogS>
-1.93

>  <H-Acceptors>
7

>  <H-Donors>
2

>  <Total Surface Area>
143.86

>  <MMFF94 Energy>
-145.87

> <Gold.Version>
5.8.1

> <Gold.Id.Protein>
ID|2FQT|mol2

> <Gold.PLP.Fitness>
34.1447

> <Gold.PLP.PLP>
-29.1217

> <Gold.PLP.part.hbond>
-1.2945

> <Gold.PLP.part.metal>
0.0000

> <Gold.PLP.part.buried>
-5.5861

> <Gold.PLP.part.nonpolar>
-23.6789

> <Gold.PLP.part.repulsive>
0.4786

> <Gold.PLP.ligand.clash>
0.0000

> <Gold.PLP.ligand.torsion>
0.4885

> <Gold.PLP.Chemscore.Hbond>
1.0000

> <Gold.PLP.Chemscore.CHOScore>
1.0000

> <Gold.PLP.Chemscore.Metal>
0.0000

> <Gold.Chemscore.Hbonds>
donor molecule, donor type, donor heavy atom, donor atom, acceptor molecule, acceptor atom, score
      L1  H     5    16       P1   954  1.00
      L1  C    12    20       P1   431  1.00

> <Gold.PLP.Chemscore.Internal.Correction>
0.0000

> <Gold.Protein.RotatedTorsions>
[ 1849  621  620  617 ] final  -67.70 input   60.00 | X-H torsion

> <Gold.Protein.ActiveResidues>
 HIS54   GLU57   HIS58   ALA61   PHE62   ILE76   ILE77   ASP78   ILE79   SER80  
 PRO81   GLN125  CYS126  GLY127  GLN128  HIS132  CO701  

> <Gold.Protein.RotatedAtoms>
  -19.7361   28.0317  -13.8008 H   0  0  0  0  0  0  0  0  0  0  0  0  # atno 1849 bound_to 621 
  -18.2328   27.4137  -13.7237 LP  0  0  0  0  0  0  0  0  0  0  0  0  # atno 2431 bound_to 621 
  -18.6068   28.7653  -12.8872 LP  0  0  0  0  0  0  0  0  0  0  0  0  # atno 2432 bound_to 621 

$$$$
Compound 120|DecoysActives|sdf|127|dock1
  -GOLD-   6112412143D 1   1.00000     0.00000

 31 32  0  0  0  0  0  0  0  0  1 V2000
  -26.7991   29.9422  -19.8552 N   0  0  0  0  0  0  0  0  0  0  0  0
  -26.7125   30.3668  -18.6029 N   0  0  0  0  0  0  0  0  0  0  0  0
  -25.7759   30.5304  -20.4862 N   0  0  0  0  0  0  0  0  0  0  0  0
  -25.6284   31.2019  -18.5524 C   0  0  0  0  0  0  0  0  0  0  0  0
  -24.9917   31.3200  -19.7297 N   0  0  0  0  0  0  0  0  0  0  0  0
  -25.1797   31.8573  -17.2982 C   0  0  0  0  0  0  0  0  0  0  0  0
  -25.1911   33.4187  -17.2751 C   0  0  0  0  0  0  0  0  0  0  0  0
  -25.2514   33.8350  -15.7708 C   0  0  0  0  0  0  0  0  0  0  0  0
  -26.4577   33.9706  -17.9828 C   0  0  0  0  0  0  0  0  0  0  0  0
  -23.8762   33.9971  -17.8873 C   0  0  0  0  0  0  0  0  0  0  0  0
  -25.5007   35.3259  -15.5372 C   0  0  0  0  0  0  0  0  0  0  0  0
  -26.6762   35.4680  -17.7657 C   0  0  0  0  0  0  0  0  0  0  0  0
  -22.6410   33.5567  -17.2492 N   0  0  0  0  0  0  0  0  0  0  0  0
  -26.7341   35.8173  -16.2840 C   0  0  0  0  0  0  0  0  0  0  0  0
  -25.6052   30.3824  -21.4769 H   0  0  0  0  0  0  0  0  0  0  0  0
  -25.8302   31.4822  -16.4957 H   0  0  0  0  0  0  0  0  0  0  0  0
  -24.1727   31.4969  -17.0482 H   0  0  0  0  0  0  0  0  0  0  0  0
  -24.3243   33.5421  -15.2619 H   0  0  0  0  0  0  0  0  0  0  0  0
  -26.0609   33.2833  -15.2733 H   0  0  0  0  0  0  0  0  0  0  0  0
  -26.4227   33.7760  -19.0612 H   0  0  0  0  0  0  0  0  0  0  0  0
  -27.3415   33.4381  -17.6055 H   0  0  0  0  0  0  0  0  0  0  0  0
  -23.9118   35.0932  -17.8533 H   0  0  0  0  0  0  0  0  0  0  0  0
  -23.7943   33.7300  -18.9449 H   0  0  0  0  0  0  0  0  0  0  0  0
  -25.6312   35.5064  -14.4638 H   0  0  0  0  0  0  0  0  0  0  0  0
  -24.6260   35.9111  -15.8413 H   0  0  0  0  0  0  0  0  0  0  0  0
  -25.8786   36.0410  -18.2521 H   0  0  0  0  0  0  0  0  0  0  0  0
  -27.6144   35.7703  -18.2458 H   0  0  0  0  0  0  0  0  0  0  0  0
  -21.9412   33.3627  -17.9642 H   0  0  0  0  0  0  0  0  0  0  0  0
  -22.2534   34.3255  -16.6914 H   0  0  0  0  0  0  0  0  0  0  0  0
  -26.8315   36.9021  -16.1631 H   0  0  0  0  0  0  0  0  0  0  0  0
  -27.6305   35.3669  -15.8399 H   0  0  0  0  0  0  0  0  0  0  0  0
  1  2  2  0  0  0  0
  1  3  1  0  0  0  0
  2  4  1  0  0  0  0
  3  5  1  0  0  0  0
  3 15  1  0  0  0  0
  4  6  1  0  0  0  0
  4  5  2  0  0  0  0
  6  7  1  0  0  0  0
  6 16  1  0  0  0  0
  6 17  1  0  0  0  0
  7  8  1  0  0  0  0
  7  9  1  0  0  0  0
  7 10  1  0  0  0  0
  8 11  1  0  0  0  0
  8 18  1  0  0  0  0
  8 19  1  0  0  0  0
  9 12  1  0  0  0  0
  9 20  1  0  0  0  0
  9 21  1  0  0  0  0
 10 13  1  0  0  0  0
 10 22  1  0  0  0  0
 10 23  1  0  0  0  0
 11 14  1  0  0  0  0
 11 24  1  0  0  0  0
 11 25  1  0  0  0  0
 12 14  1  0  0  0  0
 12 26  1  0  0  0  0
 12 27  1  0  0  0  0
 13 28  1  0  0  0  0
 13 29  1  0  0  0  0
 14 30  1  0  0  0  0
 14 31  1  0  0  0  0
M  END
>  <Column 1>
[NH3+]CC1(Cc2nn[n-]n2)CCCCC1 ZINC000000023838

>  <Total Molweight>
195.269

>  <cLogP>
0.2831

>  <cLogS>
-1.612

>  <H-Acceptors>
5

>  <H-Donors>
2

>  <Total Surface Area>
160.86

>  <MMFF94 Energy>
20.695

> <Gold.Version>
5.8.1

> <Gold.Id.Protein>
ID|2FQT|mol2

> <Gold.PLP.Fitness>
46.2031

> <Gold.PLP.PLP>
-31.9538

> <Gold.PLP.part.hbond>
-1.0000

> <Gold.PLP.part.metal>
-1.8405

> <Gold.PLP.part.buried>
-4.7771

> <Gold.PLP.part.nonpolar>
-25.0678

> <Gold.PLP.part.repulsive>
0.2965

> <Gold.PLP.ligand.clash>
0.0000

> <Gold.PLP.ligand.torsion>
0.3508

> <Gold.PLP.Chemscore.Hbond>
1.0000

> <Gold.PLP.Chemscore.CHOScore>
0.0000

> <Gold.PLP.Chemscore.Metal>
1.9865

> <Gold.Chemscore.Hbonds>
donor molecule, donor type, donor heavy atom, donor atom, acceptor molecule, acceptor atom, score
      P1  H   966  2177       L1     1  1.00
      P1  M  1222  1222       L1     1  0.99
      P1  M  1222  1222       L1     2  1.00

> <Gold.PLP.Chemscore.Internal.Correction>
0.0316

> <Gold.Protein.RotatedTorsions>
[ 1849  621  620  617 ] final  156.46 input   60.00 | X-H torsion

> <Gold.Protein.ActiveResidues>
 HIS54   GLU57   HIS58   ALA61   PHE62   ILE76   ILE77   ASP78   ILE79   SER80  
 PRO81   GLN125  CYS126  GLY127  GLN128  HIS132  CO701  

> <Gold.Protein.RotatedAtoms>
  -18.0838   27.5564  -13.5670 H   0  0  0  0  0  0  0  0  0  0  0  0  # atno 1849 bound_to 621 
  -18.8543   28.8365  -12.9223 LP  0  0  0  0  0  0  0  0  0  0  0  0  # atno 2431 bound_to 621 
  -19.6492   27.8211  -13.9241 LP  0  0  0  0  0  0  0  0  0  0  0  0  # atno 2432 bound_to 621 

$$$$
Compound 121|DecoysActives|sdf|128|dock2
  -GOLD-   6112412143D 1   1.00000     0.00000

 27 28  0  0  0  0  0  0  0  0  1 V2000
  -25.2638   27.7009  -19.8854 S   0  0  0  0  0  0  0  0  0  0  0  0
  -25.4484   27.7007  -21.3237 O   0  0  0  0  0  0  0  0  0  0  0  0
  -23.9547   27.5143  -19.2923 O   0  0  0  0  0  0  0  0  0  0  0  0
  -25.7843   29.2900  -19.3655 C   0  0  0  0  0  0  0  0  0  0  0  0
  -26.4227   26.5896  -19.1364 C   0  0  0  0  0  0  0  0  0  0  0  0
  -26.8085   29.9499  -19.8644 N   0  0  0  0  0  0  0  0  0  0  0  0
  -25.1960   30.0475  -18.3854 N   0  0  0  0  0  0  0  0  0  0  0  0
  -26.8792   31.1570  -19.2202 N   0  0  0  0  0  0  0  0  0  0  0  0
  -25.8843   31.2409  -18.3515 C   0  0  0  0  0  0  0  0  0  0  0  0
  -24.1293   29.6149  -17.5189 C   0  0  0  0  0  0  0  0  0  0  0  0
  -25.5927   32.4167  -17.5253 C   0  0  0  0  0  0  0  0  0  0  0  0
  -26.0271   33.7047  -17.8704 C   0  0  0  0  0  0  0  0  0  0  0  0
  -25.0192   32.2311  -16.2579 C   0  0  0  0  0  0  0  0  0  0  0  0
  -25.8064   34.7888  -17.0144 C   0  0  0  0  0  0  0  0  0  0  0  0
  -24.7972   33.3123  -15.4013 C   0  0  0  0  0  0  0  0  0  0  0  0
  -25.1824   34.5933  -15.7850 C   0  0  0  0  0  0  0  0  0  0  0  0
  -27.4273   26.8291  -19.4901 H   0  0  0  0  0  0  0  0  0  0  0  0
  -26.3575   26.6820  -18.0507 H   0  0  0  0  0  0  0  0  0  0  0  0
  -26.1574   25.5737  -19.4370 H   0  0  0  0  0  0  0  0  0  0  0  0
  -24.2203   30.1069  -16.5478 H   0  0  0  0  0  0  0  0  0  0  0  0
  -24.1957   28.5375  -17.3553 H   0  0  0  0  0  0  0  0  0  0  0  0
  -23.1777   29.8661  -17.9927 H   0  0  0  0  0  0  0  0  0  0  0  0
  -26.5666   33.8869  -18.7951 H   0  0  0  0  0  0  0  0  0  0  0  0
  -24.7320   31.2319  -15.9324 H   0  0  0  0  0  0  0  0  0  0  0  0
  -26.1400   35.7834  -17.2999 H   0  0  0  0  0  0  0  0  0  0  0  0
  -24.3348   33.1483  -14.4311 H   0  0  0  0  0  0  0  0  0  0  0  0
  -25.0169   35.4344  -15.1167 H   0  0  0  0  0  0  0  0  0  0  0  0
  1  2  2  0  0  0  0
  1  3  2  0  0  0  0
  1  4  1  0  0  0  0
  1  5  1  0  0  0  0
  4  6  2  0  0  0  0
  4  7  1  0  0  0  0
  5 17  1  0  0  0  0
  5 18  1  0  0  0  0
  5 19  1  0  0  0  0
  6  8  1  0  0  0  0
  7  9  1  0  0  0  0
  7 10  1  0  0  0  0
  8  9  2  0  0  0  0
  9 11  1  0  0  0  0
 10 20  1  0  0  0  0
 10 21  1  0  0  0  0
 10 22  1  0  0  0  0
 11 12  2  0  0  0  0
 11 13  1  0  0  0  0
 12 14  1  0  0  0  0
 12 23  1  0  0  0  0
 13 15  2  0  0  0  0
 13 24  1  0  0  0  0
 14 16  2  0  0  0  0
 14 25  1  0  0  0  0
 15 16  1  0  0  0  0
 15 26  1  0  0  0  0
 16 27  1  0  0  0  0
M  END
>  <Column 1>
Cn1c(-c2ccccc2)nnc1S(C)(=O)=O ZINC000000024658

>  <Total Molweight>
237.282

>  <cLogP>
0.4494

>  <cLogS>
-2.56

>  <H-Acceptors>
5

>  <H-Donors>
0

>  <Total Surface Area>
172.84

>  <MMFF94 Energy>
45.397

> <Gold.Version>
5.8.1

> <Gold.Id.Protein>
ID|2FQT|mol2

> <Gold.PLP.Fitness>
47.5660

> <Gold.PLP.PLP>
-33.2745

> <Gold.PLP.part.hbond>
-1.0000

> <Gold.PLP.part.metal>
-2.0000

> <Gold.PLP.part.buried>
-2.4451

> <Gold.PLP.part.nonpolar>
-27.8988

> <Gold.PLP.part.repulsive>
0.1202

> <Gold.PLP.ligand.clash>
0.0000

> <Gold.PLP.ligand.torsion>
1.3489

> <Gold.PLP.Chemscore.Hbond>
1.0000

> <Gold.PLP.Chemscore.CHOScore>
0.0000

> <Gold.PLP.Chemscore.Metal>
1.9863

> <Gold.Chemscore.Hbonds>
donor molecule, donor type, donor heavy atom, donor atom, acceptor molecule, acceptor atom, score
      P1  H   966  2177       L1     6  1.00
      P1  M  1222  1222       L1     6  0.99
      P1  M  1222  1222       L1     8  1.00

> <Gold.PLP.Chemscore.Internal.Correction>
2.0714

> <Gold.Protein.RotatedTorsions>
[ 1849  621  620  617 ] final   77.48 input   60.00 | X-H torsion

> <Gold.Protein.ActiveResidues>
 HIS54   GLU57   HIS58   ALA61   PHE62   ILE76   ILE77   ASP78   ILE79   SER80  
 PRO81   GLN125  CYS126  GLY127  GLN128  HIS132  CO701  

> <Gold.Protein.RotatedAtoms>
  -18.2651   28.5426  -12.9249 H   0  0  0  0  0  0  0  0  0  0  0  0  # atno 1849 bound_to 621 
  -19.7498   28.3684  -13.5678 LP  0  0  0  0  0  0  0  0  0  0  0  0  # atno 2431 bound_to 621 
  -18.5712   27.2961  -13.9252 LP  0  0  0  0  0  0  0  0  0  0  0  0  # atno 2432 bound_to 621 

$$$$
Compound 122|DecoysActives|sdf|129|dock7
  -GOLD-   6112412143D 1   1.00000     0.00000

 27 28  0  0  0  0  0  0  0  0  1 V2000
  -25.3135   27.7284  -19.9746 S   0  0  0  0  0  0  0  0  0  0  0  0
  -25.5186   27.7527  -21.4096 O   0  0  0  0  0  0  0  0  0  0  0  0
  -24.0018   27.4984  -19.4022 O   0  0  0  0  0  0  0  0  0  0  0  0
  -25.7861   29.3213  -19.4196 C   0  0  0  0  0  0  0  0  0  0  0  0
  -26.4897   26.6349  -19.2260 C   0  0  0  0  0  0  0  0  0  0  0  0
  -26.7987   30.0158  -19.8947 N   0  0  0  0  0  0  0  0  0  0  0  0
  -25.1753   30.0401  -18.4231 N   0  0  0  0  0  0  0  0  0  0  0  0
  -26.8407   31.2055  -19.2182 N   0  0  0  0  0  0  0  0  0  0  0  0
  -25.8391   31.2465  -18.3530 C   0  0  0  0  0  0  0  0  0  0  0  0
  -24.1213   29.5475  -17.5722 C   0  0  0  0  0  0  0  0  0  0  0  0
  -25.5335   32.3975  -17.4994 C   0  0  0  0  0  0  0  0  0  0  0  0
  -25.9159   33.7058  -17.8162 C   0  0  0  0  0  0  0  0  0  0  0  0
  -25.0019   32.1699  -16.2189 C   0  0  0  0  0  0  0  0  0  0  0  0
  -26.5314   33.9773  -18.9767 F   0  0  0  0  0  0  0  0  0  0  0  0
  -25.6938   34.7665  -16.9373 C   0  0  0  0  0  0  0  0  0  0  0  0
  -24.7750   33.2268  -15.3311 C   0  0  0  0  0  0  0  0  0  0  0  0
  -25.1128   34.5281  -15.6947 C   0  0  0  0  0  0  0  0  0  0  0  0
  -27.4928   26.9058  -19.5607 H   0  0  0  0  0  0  0  0  0  0  0  0
  -26.4063   26.7076  -18.1400 H   0  0  0  0  0  0  0  0  0  0  0  0
  -26.2551   25.6176  -19.5469 H   0  0  0  0  0  0  0  0  0  0  0  0
  -24.2738   28.4836  -17.3773 H   0  0  0  0  0  0  0  0  0  0  0  0
  -23.1663   29.7040  -18.0785 H   0  0  0  0  0  0  0  0  0  0  0  0
  -24.1430   30.0682  -16.6126 H   0  0  0  0  0  0  0  0  0  0  0  0
  -24.7532   31.1557  -15.9065 H   0  0  0  0  0  0  0  0  0  0  0  0
  -25.9939   35.7702  -17.2231 H   0  0  0  0  0  0  0  0  0  0  0  0
  -24.3461   33.0277  -14.3516 H   0  0  0  0  0  0  0  0  0  0  0  0
  -24.9439   35.3496  -15.0031 H   0  0  0  0  0  0  0  0  0  0  0  0
  1  2  2  0  0  0  0
  1  3  2  0  0  0  0
  1  4  1  0  0  0  0
  1  5  1  0  0  0  0
  4  6  2  0  0  0  0
  4  7  1  0  0  0  0
  5 18  1  0  0  0  0
  5 19  1  0  0  0  0
  5 20  1  0  0  0  0
  6  8  1  0  0  0  0
  7  9  1  0  0  0  0
  7 10  1  0  0  0  0
  8  9  2  0  0  0  0
  9 11  1  0  0  0  0
 10 21  1  0  0  0  0
 10 22  1  0  0  0  0
 10 23  1  0  0  0  0
 11 12  2  0  0  0  0
 11 13  1  0  0  0  0
 12 14  1  0  0  0  0
 12 15  1  0  0  0  0
 13 16  2  0  0  0  0
 13 24  1  0  0  0  0
 15 17  2  0  0  0  0
 15 25  1  0  0  0  0
 16 17  1  0  0  0  0
 16 26  1  0  0  0  0
 17 27  1  0  0  0  0
M  END
>  <Column 1>
Cn1c(-c2ccccc2F)nnc1S(C)(=O)=O ZINC000000024661

>  <Total Molweight>
255.272

>  <cLogP>
0.5502

>  <cLogS>
-2.874

>  <H-Acceptors>
5

>  <H-Donors>
0

>  <Total Surface Area>
179.19

>  <MMFF94 Energy>
44.545

> <Gold.Version>
5.8.1

> <Gold.Id.Protein>
ID|2FQT|mol2

> <Gold.PLP.Fitness>
50.1514

> <Gold.PLP.PLP>
-35.7776

> <Gold.PLP.part.hbond>
-1.0000

> <Gold.PLP.part.metal>
-2.0000

> <Gold.PLP.part.buried>
-1.3004

> <Gold.PLP.part.nonpolar>
-31.4126

> <Gold.PLP.part.repulsive>
0.1255

> <Gold.PLP.ligand.clash>
0.0021

> <Gold.PLP.ligand.torsion>
1.3883

> <Gold.PLP.Chemscore.Hbond>
1.0000

> <Gold.PLP.Chemscore.CHOScore>
0.0000

> <Gold.PLP.Chemscore.Metal>
1.9644

> <Gold.Chemscore.Hbonds>
donor molecule, donor type, donor heavy atom, donor atom, acceptor molecule, acceptor atom, score
      P1  H   966  2177       L1     6  1.00
      P1  M  1222  1222       L1     6  0.97
      P1  M  1222  1222       L1     8  1.00

> <Gold.PLP.Chemscore.Internal.Correction>
2.3659

> <Gold.Protein.RotatedTorsions>
[ 1849  621  620  617 ] final  -66.33 input   60.00 | X-H torsion

> <Gold.Protein.ActiveResidues>
 HIS54   GLU57   HIS58   ALA61   PHE62   ILE76   ILE77   ASP78   ILE79   SER80  
 PRO81   GLN125  CYS126  GLY127  GLN128  HIS132  CO701  

> <Gold.Protein.RotatedAtoms>
  -19.7410   28.0503  -13.7892 H   0  0  0  0  0  0  0  0  0  0  0  0  # atno 1849 bound_to 621 
  -18.2486   27.4037  -13.7363 LP  0  0  0  0  0  0  0  0  0  0  0  0  # atno 2431 bound_to 621 
  -18.5860   28.7566  -12.8863 LP  0  0  0  0  0  0  0  0  0  0  0  0  # atno 2432 bound_to 621 

$$$$
Compound 123|DecoysActives|sdf|130|dock15
  -GOLD-   6112412143D 1   1.00000     0.00000

 23 24  0  0  0  0  0  0  0  0  1 V2000
  -26.1829   30.6189  -18.3842 O   0  0  0  0  0  0  0  0  0  0  0  0
  -25.5952   31.3348  -17.5786 C   0  0  0  0  0  0  0  0  0  0  0  0
  -26.0130   32.6124  -17.3082 N   0  0  0  0  0  0  0  0  0  0  0  0
  -24.4788   30.8928  -16.9333 N   0  0  0  0  0  0  0  0  0  0  0  0
  -25.3410   33.4644  -16.4103 N   0  0  0  0  0  0  0  0  0  0  0  0
  -23.7993   31.6718  -15.9213 C   0  0  0  0  0  0  0  0  0  0  0  0
  -25.7738   34.7942  -16.3059 C   0  0  0  0  0  0  0  0  0  0  0  0
  -23.9310   33.1742  -16.1699 C   0  0  0  0  0  0  0  0  0  0  0  0
  -27.0138   35.1152  -16.7475 N   0  0  0  0  0  0  0  0  0  0  0  0
  -24.9320   35.7840  -15.7892 C   0  0  0  0  0  0  0  0  0  0  0  0
  -27.4256   36.3995  -16.6471 C   0  0  0  0  0  0  0  0  0  0  0  0
  -25.3749   37.1036  -15.6976 C   0  0  0  0  0  0  0  0  0  0  0  0
  -26.6518   37.4201  -16.1307 C   0  0  0  0  0  0  0  0  0  0  0  0
  -26.7843   32.9778  -17.8518 H   0  0  0  0  0  0  0  0  0  0  0  0
  -24.2106   29.9380  -17.1281 H   0  0  0  0  0  0  0  0  0  0  0  0
  -22.7483   31.3683  -15.9053 H   0  0  0  0  0  0  0  0  0  0  0  0
  -24.2498   31.4019  -14.9593 H   0  0  0  0  0  0  0  0  0  0  0  0
  -23.3369   33.4683  -17.0441 H   0  0  0  0  0  0  0  0  0  0  0  0
  -23.5454   33.7069  -15.2926 H   0  0  0  0  0  0  0  0  0  0  0  0
  -23.9182   35.5475  -15.4842 H   0  0  0  0  0  0  0  0  0  0  0  0
  -28.4320   36.5894  -17.0089 H   0  0  0  0  0  0  0  0  0  0  0  0
  -24.7207   37.8738  -15.2993 H   0  0  0  0  0  0  0  0  0  0  0  0
  -27.0308   38.4340  -16.0763 H   0  0  0  0  0  0  0  0  0  0  0  0
  1  2  2  0  0  0  0
  2  3  1  0  0  0  0
  2  4  1  0  0  0  0
  3  5  1  0  0  0  0
  3 14  1  0  0  0  0
  4  6  1  0  0  0  0
  4 15  1  0  0  0  0
  5  7  1  0  0  0  0
  5  8  1  0  0  0  0
  6  8  1  0  0  0  0
  6 16  1  0  0  0  0
  6 17  1  0  0  0  0
  7  9  2  0  0  0  0
  7 10  1  0  0  0  0
  8 18  1  0  0  0  0
  8 19  1  0  0  0  0
  9 11  1  0  0  0  0
 10 12  2  0  0  0  0
 10 20  1  0  0  0  0
 11 13  2  0  0  0  0
 11 21  1  0  0  0  0
 12 13  1  0  0  0  0
 12 22  1  0  0  0  0
 13 23  1  0  0  0  0
M  END
>  <Column 1>
O=C1NCCN(c2ccccn2)N1 ZINC000000025263

>  <Total Molweight>
178.194

>  <cLogP>
-0.5307

>  <cLogS>
-1.453

>  <H-Acceptors>
5

>  <H-Donors>
2

>  <Total Surface Area>
137.01

>  <MMFF94 Energy>
1.1128

> <Gold.Version>
5.8.1

> <Gold.Id.Protein>
ID|2FQT|mol2

> <Gold.PLP.Fitness>
36.6781

> <Gold.PLP.PLP>
-31.0548

> <Gold.PLP.part.hbond>
-1.0000

> <Gold.PLP.part.metal>
-0.9606

> <Gold.PLP.part.buried>
-2.7504

> <Gold.PLP.part.nonpolar>
-26.6569

> <Gold.PLP.part.repulsive>
0.3121

> <Gold.PLP.ligand.clash>
0.0000

> <Gold.PLP.ligand.torsion>
0.1097

> <Gold.PLP.Chemscore.Hbond>
0.0000

> <Gold.PLP.Chemscore.CHOScore>
0.0000

> <Gold.PLP.Chemscore.Metal>
0.9399

> <Gold.Chemscore.Hbonds>
donor molecule, donor type, donor heavy atom, donor atom, acceptor molecule, acceptor atom, score
      P1  M  1222  1222       L1     1  0.94

> <Gold.PLP.Chemscore.Internal.Correction>
0.2031

> <Gold.Protein.RotatedTorsions>
[ 1849  621  620  617 ] final  121.97 input   60.00 | X-H torsion

> <Gold.Protein.ActiveResidues>
 HIS54   GLU57   HIS58   ALA61   PHE62   ILE76   ILE77   ASP78   ILE79   SER80  
 PRO81   GLN125  CYS126  GLY127  GLN128  HIS132  CO701  

> <Gold.Protein.RotatedAtoms>
  -17.9624   27.9762  -13.2247 H   0  0  0  0  0  0  0  0  0  0  0  0  # atno 1849 bound_to 621 
  -19.3691   28.7892  -13.1348 LP  0  0  0  0  0  0  0  0  0  0  0  0  # atno 2431 bound_to 621 
  -19.2567   27.4457  -14.0562 LP  0  0  0  0  0  0  0  0  0  0  0  0  # atno 2432 bound_to 621 

$$$$
Compound 124|DecoysActives|sdf|131|dock3
  -GOLD-   6112412143D 1   1.00000     0.00000

 24 25  0  0  0  0  0  0  0  0  1 V2000
  -26.2265   30.7370  -18.4435 O   0  0  0  0  0  0  0  0  0  0  0  0
  -25.6070   31.4218  -17.6348 C   0  0  0  0  0  0  0  0  0  0  0  0
  -25.9018   32.7452  -17.4255 N   0  0  0  0  0  0  0  0  0  0  0  0
  -24.6053   30.8803  -16.8846 N   0  0  0  0  0  0  0  0  0  0  0  0
  -25.2358   33.5477  -16.4797 N   0  0  0  0  0  0  0  0  0  0  0  0
  -23.7893   31.6696  -15.9907 C   0  0  0  0  0  0  0  0  0  0  0  0
  -25.6447   34.8813  -16.3931 C   0  0  0  0  0  0  0  0  0  0  0  0
  -24.5676   32.8413  -15.3897 C   0  0  0  0  0  0  0  0  0  0  0  0
  -26.8738   35.2971  -16.9370 C   0  0  0  0  0  0  0  0  0  0  0  0
  -24.8534   35.8678  -15.7832 C   0  0  0  0  0  0  0  0  0  0  0  0
  -27.2991   36.6280  -16.8643 C   0  0  0  0  0  0  0  0  0  0  0  0
  -25.2740   37.2011  -15.7050 C   0  0  0  0  0  0  0  0  0  0  0  0
  -26.4983   37.5805  -16.2447 C   0  0  0  0  0  0  0  0  0  0  0  0
  -26.6953   33.1371  -17.9183 H   0  0  0  0  0  0  0  0  0  0  0  0
  -24.3867   29.9135  -17.0829 H   0  0  0  0  0  0  0  0  0  0  0  0
  -23.4064   31.0108  -15.2055 H   0  0  0  0  0  0  0  0  0  0  0  0
  -22.9392   32.0360  -16.5775 H   0  0  0  0  0  0  0  0  0  0  0  0
  -25.3143   32.4772  -14.6736 H   0  0  0  0  0  0  0  0  0  0  0  0
  -23.8624   33.4902  -14.8579 H   0  0  0  0  0  0  0  0  0  0  0  0
  -27.5074   34.5838  -17.4595 H   0  0  0  0  0  0  0  0  0  0  0  0
  -23.8986   35.6129  -15.3330 H   0  0  0  0  0  0  0  0  0  0  0  0
  -28.2521   36.9164  -17.3003 H   0  0  0  0  0  0  0  0  0  0  0  0
  -24.6428   37.9401  -15.2182 H   0  0  0  0  0  0  0  0  0  0  0  0
  -26.8253   38.6152  -16.1863 H   0  0  0  0  0  0  0  0  0  0  0  0
  1  2  2  0  0  0  0
  2  3  1  0  0  0  0
  2  4  1  0  0  0  0
  3  5  1  0  0  0  0
  3 14  1  0  0  0  0
  4  6  1  0  0  0  0
  4 15  1  0  0  0  0
  5  7  1  0  0  0  0
  5  8  1  0  0  0  0
  6  8  1  0  0  0  0
  6 16  1  0  0  0  0
  6 17  1  0  0  0  0
  7  9  2  0  0  0  0
  7 10  1  0  0  0  0
  8 18  1  0  0  0  0
  8 19  1  0  0  0  0
  9 11  1  0  0  0  0
  9 20  1  0  0  0  0
 10 12  2  0  0  0  0
 10 21  1  0  0  0  0
 11 13  2  0  0  0  0
 11 22  1  0  0  0  0
 12 13  1  0  0  0  0
 12 23  1  0  0  0  0
 13 24  1  0  0  0  0
M  END
>  <Column 1>
O=C1NCCN(c2ccccc2)N1 ZINC000000025267

>  <Total Molweight>
177.206

>  <cLogP>
0.1188

>  <cLogS>
-1.723

>  <H-Acceptors>
4

>  <H-Donors>
2

>  <Total Surface Area>
138.25

>  <MMFF94 Energy>
19.852

> <Gold.Version>
5.8.1

> <Gold.Id.Protein>
ID|2FQT|mol2

> <Gold.PLP.Fitness>
40.8572

> <Gold.PLP.PLP>
-35.8599

> <Gold.PLP.part.hbond>
0.0000

> <Gold.PLP.part.metal>
-0.9640

> <Gold.PLP.part.buried>
-3.6722

> <Gold.PLP.part.nonpolar>
-31.1355

> <Gold.PLP.part.repulsive>
0.2067

> <Gold.PLP.ligand.clash>
0.0000

> <Gold.PLP.ligand.torsion>
0.3815

> <Gold.PLP.Chemscore.Hbond>
0.0000

> <Gold.PLP.Chemscore.CHOScore>
0.0000

> <Gold.PLP.Chemscore.Metal>
0.9399

> <Gold.Chemscore.Hbonds>
donor molecule, donor type, donor heavy atom, donor atom, acceptor molecule, acceptor atom, score
      P1  M  1222  1222       L1     1  0.94

> <Gold.PLP.Chemscore.Internal.Correction>
0.1207

> <Gold.Protein.RotatedTorsions>
[ 1849  621  620  617 ] final  -80.77 input   60.00 | X-H torsion

> <Gold.Protein.ActiveResidues>
 HIS54   GLU57   HIS58   ALA61   PHE62   ILE76   ILE77   ASP78   ILE79   SER80  
 PRO81   GLN125  CYS126  GLY127  GLN128  HIS132  CO701  

> <Gold.Protein.RotatedAtoms>
  -19.6650   27.8574  -13.9007 H   0  0  0  0  0  0  0  0  0  0  0  0  # atno 1849 bound_to 621 
  -18.1008   27.5264  -13.5974 LP  0  0  0  0  0  0  0  0  0  0  0  0  # atno 2431 bound_to 621 
  -18.8104   28.8282  -12.9130 LP  0  0  0  0  0  0  0  0  0  0  0  0  # atno 2432 bound_to 621 

$$$$
Compound 125|DecoysActives|sdf|132|dock7
  -GOLD-   6112412143D 1   1.00000     0.00000

 22 23  0  0  0  0  0  0  0  0  1 V2000
  -26.8039   30.0038  -19.9040 O   0  0  0  0  0  0  0  0  0  0  0  0
  -26.3613   30.9998  -19.3441 C   0  0  0  0  0  0  0  0  0  0  0  0
  -26.6474   32.2672  -19.7485 N   0  0  0  0  0  0  0  0  0  0  0  0
  -25.4777   30.8950  -18.1783 C   0  0  0  0  0  0  0  0  0  0  0  0
  -26.1489   33.3639  -19.1194 C   0  0  0  0  0  0  0  0  0  0  0  0
  -25.0471   32.0335  -17.6163 C   0  0  0  0  0  0  0  0  0  0  0  0
  -25.3697   33.2857  -18.0893 N   0  0  0  0  0  0  0  0  0  0  0  0
  -26.5013   34.5666  -19.6172 N   0  0  0  0  0  0  0  0  0  0  0  0
  -24.1423   31.9695  -16.4435 C   0  0  0  0  0  0  0  0  0  0  0  0
  -22.9462   31.2503  -16.5306 C   0  0  0  0  0  0  0  0  0  0  0  0
  -24.4231   32.6377  -15.2471 C   0  0  0  0  0  0  0  0  0  0  0  0
  -22.1080   31.2096  -15.4289 C   0  0  0  0  0  0  0  0  0  0  0  0
  -23.5200   32.5378  -14.2001 C   0  0  0  0  0  0  0  0  0  0  0  0
  -22.3717   31.8329  -14.2615 N   0  0  0  0  0  0  0  0  0  0  0  0
  -27.2514   32.3573  -20.5471 H   0  0  0  0  0  0  0  0  0  0  0  0
  -25.2156   29.9010  -17.8456 H   0  0  0  0  0  0  0  0  0  0  0  0
  -27.1122   34.5761  -20.4244 H   0  0  0  0  0  0  0  0  0  0  0  0
  -26.1822   35.4467  -19.2455 H   0  0  0  0  0  0  0  0  0  0  0  0
  -22.6708   30.7298  -17.4422 H   0  0  0  0  0  0  0  0  0  0  0  0
  -25.3158   33.2411  -15.1252 H   0  0  0  0  0  0  0  0  0  0  0  0
  -21.1727   30.6584  -15.4595 H   0  0  0  0  0  0  0  0  0  0  0  0
  -23.7017   33.0430  -13.2557 H   0  0  0  0  0  0  0  0  0  0  0  0
  1  2  2  0  0  0  0
  2  3  1  0  0  0  0
  2  4  1  0  0  0  0
  3  5  1  0  0  0  0
  3 15  1  0  0  0  0
  4  6  2  0  0  0  0
  4 16  1  0  0  0  0
  5  7  2  0  0  0  0
  5  8  1  0  0  0  0
  6  9  1  0  0  0  0
  6  7  1  0  0  0  0
  8 17  1  0  0  0  0
  8 18  1  0  0  0  0
  9 10  2  0  0  0  0
  9 11  1  0  0  0  0
 10 12  1  0  0  0  0
 10 19  1  0  0  0  0
 11 13  2  0  0  0  0
 11 20  1  0  0  0  0
 12 14  2  0  0  0  0
 12 21  1  0  0  0  0
 13 14  1  0  0  0  0
 13 22  1  0  0  0  0
M  END
>  <Column 1>
Nc1nc(-c2ccncc2)cc(=O)[nH]1 ZINC000000025651

>  <Total Molweight>
188.19

>  <cLogP>
-0.5698

>  <cLogS>
-1.683

>  <H-Acceptors>
5

>  <H-Donors>
2

>  <Total Surface Area>
143.93

>  <MMFF94 Energy>
-122.04

> <Gold.Version>
5.8.1

> <Gold.Id.Protein>
ID|2FQT|mol2

> <Gold.PLP.Fitness>
39.8902

> <Gold.PLP.PLP>
-24.5255

> <Gold.PLP.part.hbond>
-3.0000

> <Gold.PLP.part.metal>
-1.0000

> <Gold.PLP.part.buried>
-1.2567

> <Gold.PLP.part.nonpolar>
-20.6015

> <Gold.PLP.part.repulsive>
0.4613

> <Gold.PLP.ligand.clash>
0.0000

> <Gold.PLP.ligand.torsion>
1.0104

> <Gold.PLP.Chemscore.Hbond>
2.8560

> <Gold.PLP.Chemscore.CHOScore>
1.0000

> <Gold.PLP.Chemscore.Metal>
0.9693

> <Gold.Chemscore.Hbonds>
donor molecule, donor type, donor heavy atom, donor atom, acceptor molecule, acceptor atom, score
      L1  H     3    15       P1   954  0.91
      L1  H     8    17       P1   954  0.94
      P1  H   966  2177       L1     1  1.00
      L1  C    13    22       P1   422  1.00
      P1  M  1222  1222       L1     1  0.97

> <Gold.PLP.Chemscore.Internal.Correction>
0.0013

> <Gold.Protein.RotatedTorsions>
[ 1849  621  620  617 ] final -102.81 input   60.00 | X-H torsion

> <Gold.Protein.ActiveResidues>
 HIS54   GLU57   HIS58   ALA61   PHE62   ILE76   ILE77   ASP78   ILE79   SER80  
 PRO81   GLN125  CYS126  GLY127  GLN128  HIS132  CO701  

> <Gold.Protein.RotatedAtoms>
  -19.4536   27.5928  -14.0164 H   0  0  0  0  0  0  0  0  0  0  0  0  # atno 1849 bound_to 621 
  -17.9701   27.7764  -13.3732 LP  0  0  0  0  0  0  0  0  0  0  0  0  # atno 2431 bound_to 621 
  -19.1540   28.8445  -13.0206 LP  0  0  0  0  0  0  0  0  0  0  0  0  # atno 2432 bound_to 621 

$$$$
Compound 126|DecoysActives|sdf|133|dock4
  -GOLD-   6112412143D 1   1.00000     0.00000

 19 20  0  0  0  0  0  0  0  0  1 V2000
  -23.8294   31.7092  -15.6089 S   0  0  0  0  0  0  0  0  0  0  0  0
  -25.0449   31.2574  -16.8794 C   0  0  0  0  0  0  0  0  0  0  0  0
  -24.6678   33.1825  -14.9717 C   0  0  0  0  0  0  0  0  0  0  0  0
  -25.6001   32.4235  -17.6366 C   0  0  0  0  0  0  0  0  0  0  0  0
  -24.8318   34.2256  -16.0709 C   0  0  0  0  0  0  0  0  0  0  0  0
  -26.3283   32.0726  -18.8806 C   0  0  0  0  0  0  0  0  0  0  0  0
  -25.5156   33.7327  -17.3284 C   0  0  0  0  0  0  0  0  0  0  0  0
  -26.4978   30.9122  -19.2384 O   0  0  0  0  0  0  0  0  0  0  0  0
  -26.8103   33.1224  -19.6003 N   0  0  0  0  0  0  0  0  0  0  0  0
  -26.0464   34.7434  -18.1014 N   0  0  0  0  0  0  0  0  0  0  0  0
  -26.6546   34.4060  -19.1846 C   0  0  0  0  0  0  0  0  0  0  0  0
  -25.8593   30.7065  -16.3966 H   0  0  0  0  0  0  0  0  0  0  0  0
  -24.5360   30.5667  -17.5603 H   0  0  0  0  0  0  0  0  0  0  0  0
  -25.6388   32.8906  -14.5566 H   0  0  0  0  0  0  0  0  0  0  0  0
  -24.0729   33.5969  -14.1514 H   0  0  0  0  0  0  0  0  0  0  0  0
  -25.4118   35.0581  -15.6514 H   0  0  0  0  0  0  0  0  0  0  0  0
  -23.8522   34.6395  -16.3451 H   0  0  0  0  0  0  0  0  0  0  0  0
  -27.3018   32.9024  -20.4533 H   0  0  0  0  0  0  0  0  0  0  0  0
  -27.0997   35.1568  -19.8560 H   0  0  0  0  0  0  0  0  0  0  0  0
  1  2  1  0  0  0  0
  1  3  1  0  0  0  0
  2  4  1  0  0  0  0
  2 12  1  0  0  0  0
  2 13  1  0  0  0  0
  3  5  1  0  0  0  0
  3 14  1  0  0  0  0
  3 15  1  0  0  0  0
  4  6  1  0  0  0  0
  4  7  2  0  0  0  0
  5  7  1  0  0  0  0
  5 16  1  0  0  0  0
  5 17  1  0  0  0  0
  6  8  2  0  0  0  0
  6  9  1  0  0  0  0
  7 10  1  0  0  0  0
  9 11  1  0  0  0  0
  9 18  1  0  0  0  0
 10 11  2  0  0  0  0
 11 19  1  0  0  0  0
M  END
>  <Column 1>
O=c1[nH]cnc2c1CSCC2 ZINC000000025972

>  <Total Molweight>
168.22

>  <cLogP>
-0.3647

>  <cLogS>
-2.101

>  <H-Acceptors>
3

>  <H-Donors>
1

>  <Total Surface Area>
122.16

>  <MMFF94 Energy>
-54.842

> <Gold.Version>
5.8.1

> <Gold.Id.Protein>
ID|2FQT|mol2

> <Gold.PLP.Fitness>
32.3842

> <Gold.PLP.PLP>
-23.3634

> <Gold.PLP.part.hbond>
-0.7087

> <Gold.PLP.part.metal>
-0.8047

> <Gold.PLP.part.buried>
-1.8471

> <Gold.PLP.part.nonpolar>
-20.8465

> <Gold.PLP.part.repulsive>
0.2289

> <Gold.PLP.ligand.clash>
0.0000

> <Gold.PLP.ligand.torsion>
0.0000

> <Gold.PLP.Chemscore.Hbond>
0.8800

> <Gold.PLP.Chemscore.CHOScore>
0.3342

> <Gold.PLP.Chemscore.Metal>
0.8963

> <Gold.Chemscore.Hbonds>
donor molecule, donor type, donor heavy atom, donor atom, acceptor molecule, acceptor atom, score
      L1  H     9    18       P1   954  0.88
      L1  C    11    19       P1   954  0.33
      P1  M  1222  1222       L1     8  0.90

> <Gold.PLP.Chemscore.Internal.Correction>
0.0000

> <Gold.Protein.RotatedTorsions>
[ 1849  621  620  617 ] final  -97.82 input   60.00 | X-H torsion

> <Gold.Protein.ActiveResidues>
 HIS54   GLU57   HIS58   ALA61   PHE62   ILE76   ILE77   ASP78   ILE79   SER80  
 PRO81   GLN125  CYS126  GLY127  GLN128  HIS132  CO701  

> <Gold.Protein.RotatedAtoms>
  -19.5103   27.6479  -13.9968 H   0  0  0  0  0  0  0  0  0  0  0  0  # atno 1849 bound_to 621 
  -17.9887   27.7146  -13.4238 LP  0  0  0  0  0  0  0  0  0  0  0  0  # atno 2431 bound_to 621 
  -19.0783   28.8509  -12.9897 LP  0  0  0  0  0  0  0  0  0  0  0  0  # atno 2432 bound_to 621 

$$$$
Compound 127|DecoysActives|sdf|134|dock2
  -GOLD-   6112412143D 1   1.00000     0.00000

 19 20  0  0  0  0  0  0  0  0  1 V2000
  -26.2917   35.9999  -18.0309 O   0  0  0  0  0  0  0  0  0  0  0  0
  -25.8814   34.7960  -17.5289 C   0  0  0  0  0  0  0  0  0  0  0  0
  -25.1224   34.8081  -16.3626 C   0  0  0  0  0  0  0  0  0  0  0  0
  -26.2018   33.5931  -18.1486 C   0  0  0  0  0  0  0  0  0  0  0  0
  -24.8127   35.9934  -15.7616 O   0  0  0  0  0  0  0  0  0  0  0  0
  -24.6710   33.6258  -15.7954 C   0  0  0  0  0  0  0  0  0  0  0  0
  -25.7501   32.3863  -17.5832 C   0  0  0  0  0  0  0  0  0  0  0  0
  -24.9836   32.4069  -16.4045 C   0  0  0  0  0  0  0  0  0  0  0  0
  -26.0766   31.1618  -18.2143 N   0  0  0  0  0  0  0  0  0  0  0  0
  -26.7619   31.1053  -19.3802 N   0  0  0  0  0  0  0  0  0  0  0  0
  -25.8006   29.8745  -17.8277 C   0  0  0  0  0  0  0  0  0  0  0  0
  -26.8851   29.8180  -19.6704 N   0  0  0  0  0  0  0  0  0  0  0  0
  -26.2918   29.0386  -18.7136 N   0  0  0  0  0  0  0  0  0  0  0  0
  -27.0197   36.3333  -17.4773 H   0  0  0  0  0  0  0  0  0  0  0  0
  -26.7953   33.5938  -19.0594 H   0  0  0  0  0  0  0  0  0  0  0  0
  -25.4330   36.6400  -16.1543 H   0  0  0  0  0  0  0  0  0  0  0  0
  -24.0794   33.6546  -14.8844 H   0  0  0  0  0  0  0  0  0  0  0  0
  -24.6133   31.5014  -15.9322 H   0  0  0  0  0  0  0  0  0  0  0  0
  -25.2631   29.6043  -16.9333 H   0  0  0  0  0  0  0  0  0  0  0  0
  1  2  1  0  0  0  0
  1 14  1  0  0  0  0
  2  3  2  0  0  0  0
  2  4  1  0  0  0  0
  3  5  1  0  0  0  0
  3  6  1  0  0  0  0
  4  7  2  0  0  0  0
  4 15  1  0  0  0  0
  5 16  1  0  0  0  0
  6  8  2  0  0  0  0
  6 17  1  0  0  0  0
  7  9  1  0  0  0  0
  7  8  1  0  0  0  0
  8 18  1  0  0  0  0
  9 10  1  0  0  0  0
  9 11  1  0  0  0  0
 10 12  2  0  0  0  0
 11 13  2  0  0  0  0
 11 19  1  0  0  0  0
 12 13  1  0  0  0  0
M  END
>  <Column 1>
Oc1ccc(-n2cnnn2)cc1O ZINC000000026357

>  <Total Molweight>
178.151

>  <cLogP>
-0.1332

>  <cLogS>
-1.323

>  <H-Acceptors>
6

>  <H-Donors>
2

>  <Total Surface Area>
131.2

>  <MMFF94 Energy>
20.451

> <Gold.Version>
5.8.1

> <Gold.Id.Protein>
ID|2FQT|mol2

> <Gold.PLP.Fitness>
45.9427

> <Gold.PLP.PLP>
-22.8997

> <Gold.PLP.part.hbond>
-1.0000

> <Gold.PLP.part.metal>
-2.9606

> <Gold.PLP.part.buried>
0.1602

> <Gold.PLP.part.nonpolar>
-19.8510

> <Gold.PLP.part.repulsive>
0.1583

> <Gold.PLP.ligand.clash>
0.0000

> <Gold.PLP.ligand.torsion>
0.0038

> <Gold.PLP.Chemscore.Hbond>
1.0000

> <Gold.PLP.Chemscore.CHOScore>
0.8650

> <Gold.PLP.Chemscore.Metal>
2.9093

> <Gold.Chemscore.Hbonds>
donor molecule, donor type, donor heavy atom, donor atom, acceptor molecule, acceptor atom, score
      P1  H   966  2177       L1    12  1.00
      L1  C    11    19       P1   426  0.86
      P1  M  1222  1222       L1    10  0.97
      P1  M  1222  1222       L1    12  1.00
      P1  M  1222  1222       L1    13  0.94

> <Gold.PLP.Chemscore.Internal.Correction>
0.0000

> <Gold.Protein.RotatedTorsions>
[ 1849  621  620  617 ] final   97.96 input   60.00 | X-H torsion

> <Gold.Protein.ActiveResidues>
 HIS54   GLU57   HIS58   ALA61   PHE62   ILE76   ILE77   ASP78   ILE79   SER80  
 PRO81   GLN125  CYS126  GLY127  GLN128  HIS132  CO701  

> <Gold.Protein.RotatedAtoms>
  -18.0664   28.2977  -13.0310 H   0  0  0  0  0  0  0  0  0  0  0  0  # atno 1849 bound_to 621 
  -19.6309   28.6022  -13.3593 LP  0  0  0  0  0  0  0  0  0  0  0  0  # atno 2431 bound_to 621 
  -18.8902   27.3089  -14.0268 LP  0  0  0  0  0  0  0  0  0  0  0  0  # atno 2432 bound_to 621 

$$$$
Compound 128|DecoysActives|sdf|135|dock2
  -GOLD-   6112412143D 1   1.00000     0.00000

 24 25  0  0  0  0  0  0  0  0  1 V2000
  -24.6989   31.8027  -16.0011 F   0  0  0  0  0  0  0  0  0  0  0  0
  -25.2744   32.9671  -16.3429 C   0  0  0  0  0  0  0  0  0  0  0  0
  -25.8413   33.1514  -17.6043 C   0  0  0  0  0  0  0  0  0  0  0  0
  -25.2855   33.9930  -15.4002 C   0  0  0  0  0  0  0  0  0  0  0  0
  -25.8303   32.0730  -18.6205 C   0  0  0  0  0  0  0  0  0  0  0  0
  -26.4297   34.3862  -17.9134 C   0  0  0  0  0  0  0  0  0  0  0  0
  -25.8721   35.2201  -15.7125 C   0  0  0  0  0  0  0  0  0  0  0  0
  -25.3197   30.8916  -18.3669 N   0  0  0  0  0  0  0  0  0  0  0  0
  -26.3405   32.2223  -19.8747 N   0  0  0  0  0  0  0  0  0  0  0  0
  -26.4603   35.4226  -16.9674 C   0  0  0  0  0  0  0  0  0  0  0  0
  -25.5010   30.1075  -19.6250 C   0  0  0  0  0  0  0  0  0  0  0  0
  -26.1946   31.0233  -20.6404 C   0  0  0  0  0  0  0  0  0  0  0  0
  -27.0628   36.7506  -17.3218 C   0  0  0  0  0  0  0  0  0  0  0  0
  -24.8333   33.8301  -14.4267 H   0  0  0  0  0  0  0  0  0  0  0  0
  -26.8677   34.5390  -18.8989 H   0  0  0  0  0  0  0  0  0  0  0  0
  -25.8688   36.0172  -14.9718 H   0  0  0  0  0  0  0  0  0  0  0  0
  -26.7676   33.0711  -20.2228 H   0  0  0  0  0  0  0  0  0  0  0  0
  -26.1072   29.2194  -19.4178 H   0  0  0  0  0  0  0  0  0  0  0  0
  -24.5241   29.7786  -19.9947 H   0  0  0  0  0  0  0  0  0  0  0  0
  -27.1649   30.6219  -20.9467 H   0  0  0  0  0  0  0  0  0  0  0  0
  -25.5730   31.1856  -21.5257 H   0  0  0  0  0  0  0  0  0  0  0  0
  -26.3067   37.3933  -17.7831 H   0  0  0  0  0  0  0  0  0  0  0  0
  -27.4570   37.2512  -16.4311 H   0  0  0  0  0  0  0  0  0  0  0  0
  -27.8972   36.6265  -18.0201 H   0  0  0  0  0  0  0  0  0  0  0  0
  1  2  1  0  0  0  0
  2  3  2  0  0  0  0
  2  4  1  0  0  0  0
  3  5  1  0  0  0  0
  3  6  1  0  0  0  0
  4  7  2  0  0  0  0
  4 14  1  0  0  0  0
  5  8  2  0  0  0  0
  5  9  1  0  0  0  0
  6 10  2  0  0  0  0
  6 15  1  0  0  0  0
  7 10  1  0  0  0  0
  7 16  1  0  0  0  0
  8 11  1  0  0  0  0
  9 12  1  0  0  0  0
  9 17  1  0  0  0  0
 10 13  1  0  0  0  0
 11 12  1  0  0  0  0
 11 18  1  0  0  0  0
 11 19  1  0  0  0  0
 12 20  1  0  0  0  0
 12 21  1  0  0  0  0
 13 22  1  0  0  0  0
 13 23  1  0  0  0  0
 13 24  1  0  0  0  0
M  END
>  <Column 1>
Cc1ccc(F)c(C2=NCCN2)c1 ZINC000000026886

>  <Total Molweight>
178.209

>  <cLogP>
1.4752

>  <cLogS>
-2.481

>  <H-Acceptors>
2

>  <H-Donors>
1

>  <Total Surface Area>
140.32

>  <MMFF94 Energy>
34.502

> <Gold.Version>
5.8.1

> <Gold.Id.Protein>
ID|2FQT|mol2

> <Gold.PLP.Fitness>
38.5434

> <Gold.PLP.PLP>
-36.3859

> <Gold.PLP.part.hbond>
-1.0000

> <Gold.PLP.part.metal>
0.0000

> <Gold.PLP.part.buried>
-4.5824

> <Gold.PLP.part.nonpolar>
-30.5750

> <Gold.PLP.part.repulsive>
0.1675

> <Gold.PLP.ligand.clash>
0.0000

> <Gold.PLP.ligand.torsion>
0.0012

> <Gold.PLP.Chemscore.Hbond>
0.7200

> <Gold.PLP.Chemscore.CHOScore>
0.0000

> <Gold.PLP.Chemscore.Metal>
0.0000

> <Gold.Chemscore.Hbonds>
donor molecule, donor type, donor heavy atom, donor atom, acceptor molecule, acceptor atom, score
      L1  H     9    17       P1   954  0.72

> <Gold.PLP.Chemscore.Internal.Correction>
0.0000

> <Gold.Protein.RotatedTorsions>
[ 1849  621  620  617 ] final  114.29 input   60.00 | X-H torsion

> <Gold.Protein.ActiveResidues>
 HIS54   GLU57   HIS58   ALA61   PHE62   ILE76   ILE77   ASP78   ILE79   SER80  
 PRO81   GLN125  CYS126  GLY127  GLN128  HIS132  CO701  

> <Gold.Protein.RotatedAtoms>
  -17.9790   28.0799  -13.1564 H   0  0  0  0  0  0  0  0  0  0  0  0  # atno 1849 bound_to 621 
  -19.4649   28.7418  -13.2019 LP  0  0  0  0  0  0  0  0  0  0  0  0  # atno 2431 bound_to 621 
  -19.1441   27.3887  -14.0580 LP  0  0  0  0  0  0  0  0  0  0  0  0  # atno 2432 bound_to 621 

$$$$
Compound 129|DecoysActives|sdf|136|dock7
  -GOLD-   6112412143D 1   1.00000     0.00000

 17 18  0  0  0  0  0  0  0  0  1 V2000
  -26.0046   33.6251  -17.9381 N   0  0  0  0  0  0  0  0  0  0  0  0
  -25.6560   32.3964  -17.4761 C   0  0  0  0  0  0  0  0  0  0  0  0
  -25.6294   34.7019  -17.2160 C   0  0  0  0  0  0  0  0  0  0  0  0
  -26.0775   31.2424  -18.2821 C   0  0  0  0  0  0  0  0  0  0  0  0
  -24.9331   32.2339  -16.2945 C   0  0  0  0  0  0  0  0  0  0  0  0
  -24.9123   34.6236  -16.0360 C   0  0  0  0  0  0  0  0  0  0  0  0
  -26.1644   29.9850  -17.8025 N   0  0  0  0  0  0  0  0  0  0  0  0
  -26.4593   31.2001  -19.6478 C   0  0  0  0  0  0  0  0  0  0  0  0
  -24.5588   33.3647  -15.5686 C   0  0  0  0  0  0  0  0  0  0  0  0
  -26.5772   29.2927  -18.8696 N   0  0  0  0  0  0  0  0  0  0  0  0
  -26.7768   29.9561  -20.0179 N   0  0  0  0  0  0  0  0  0  0  0  0
  -25.9323   35.6606  -17.6273 H   0  0  0  0  0  0  0  0  0  0  0  0
  -24.6537   31.2546  -15.9237 H   0  0  0  0  0  0  0  0  0  0  0  0
  -24.6366   35.5220  -15.4952 H   0  0  0  0  0  0  0  0  0  0  0  0
  -26.5196   31.9983  -20.3736 H   0  0  0  0  0  0  0  0  0  0  0  0
  -23.9952   33.2619  -14.6452 H   0  0  0  0  0  0  0  0  0  0  0  0
  -26.7350   28.2895  -18.8096 H   0  0  0  0  0  0  0  0  0  0  0  0
  1  2  2  0  0  0  0
  1  3  1  0  0  0  0
  2  4  1  0  0  0  0
  2  5  1  0  0  0  0
  3  6  2  0  0  0  0
  3 12  1  0  0  0  0
  4  7  2  0  0  0  0
  4  8  1  0  0  0  0
  5  9  2  0  0  0  0
  5 13  1  0  0  0  0
  6  9  1  0  0  0  0
  6 14  1  0  0  0  0
  7 10  1  0  0  0  0
  8 11  2  0  0  0  0
  8 15  1  0  0  0  0
  9 16  1  0  0  0  0
 10 11  1  0  0  0  0
 10 17  1  0  0  0  0
M  END
>  <Column 1>
c1ccc(-c2cn[nH]n2)nc1 ZINC000000027315

>  <Total Molweight>
146.153

>  <cLogP>
0.0391

>  <cLogS>
-0.853

>  <H-Acceptors>
4

>  <H-Donors>
1

>  <Total Surface Area>
118.87

>  <MMFF94 Energy>
56.641

> <Gold.Version>
5.8.1

> <Gold.Id.Protein>
ID|2FQT|mol2

> <Gold.PLP.Fitness>
34.0659

> <Gold.PLP.PLP>
-17.4586

> <Gold.PLP.part.hbond>
-1.0000

> <Gold.PLP.part.metal>
-1.6402

> <Gold.PLP.part.buried>
0.1956

> <Gold.PLP.part.nonpolar>
-20.3818

> <Gold.PLP.part.repulsive>
5.9115

> <Gold.PLP.ligand.clash>
0.0000

> <Gold.PLP.ligand.torsion>
0.1737

> <Gold.PLP.Chemscore.Hbond>
1.0000

> <Gold.PLP.Chemscore.CHOScore>
1.0000

> <Gold.PLP.Chemscore.Metal>
1.8258

> <Gold.Chemscore.Hbonds>
donor molecule, donor type, donor heavy atom, donor atom, acceptor molecule, acceptor atom, score
      P1  H   966  2177       L1    11  1.00
      L1  C     8    15       P1   954  1.00
      P1  M  1222  1222       L1     7  0.99
      P1  M  1222  1222       L1    11  0.84

> <Gold.PLP.Chemscore.Internal.Correction>
0.0000

> <Gold.Protein.RotatedTorsions>
[ 1849  621  620  617 ] final    8.13 input   60.00 | X-H torsion

> <Gold.Protein.ActiveResidues>
 HIS54   GLU57   HIS58   ALA61   PHE62   ILE76   ILE77   ASP78   ILE79   SER80  
 PRO81   GLN125  CYS126  GLY127  GLN128  HIS132  CO701  

> <Gold.Protein.RotatedAtoms>
  -19.2832   28.8114  -13.0861 H   0  0  0  0  0  0  0  0  0  0  0  0  # atno 1849 bound_to 621 
  -19.3420   27.4996  -14.0473 LP  0  0  0  0  0  0  0  0  0  0  0  0  # atno 2431 bound_to 621 
  -17.9537   27.8941  -13.2834 LP  0  0  0  0  0  0  0  0  0  0  0  0  # atno 2432 bound_to 621 

$$$$
Compound 130|DecoysActives|sdf|137|dock5
  -GOLD-   6112412143D 1   1.00000     0.00000

 17 18  0  0  0  0  0  0  0  0  1 V2000
  -25.0383   34.2600  -15.6489 N   0  0  0  0  0  0  0  0  0  0  0  0
  -25.5109   34.3908  -16.9057 C   0  0  0  0  0  0  0  0  0  0  0  0
  -24.7938   33.0041  -15.2226 C   0  0  0  0  0  0  0  0  0  0  0  0
  -25.7492   33.3218  -17.7531 C   0  0  0  0  0  0  0  0  0  0  0  0
  -24.9998   31.8712  -15.9947 C   0  0  0  0  0  0  0  0  0  0  0  0
  -25.4897   32.0273  -17.2937 C   0  0  0  0  0  0  0  0  0  0  0  0
  -25.7338   30.8947  -18.1689 C   0  0  0  0  0  0  0  0  0  0  0  0
  -26.7342   30.8616  -19.1096 N   0  0  0  0  0  0  0  0  0  0  0  0
  -25.0431   29.7042  -18.2162 C   0  0  0  0  0  0  0  0  0  0  0  0
  -26.6836   29.6929  -19.7341 N   0  0  0  0  0  0  0  0  0  0  0  0
  -25.6706   28.9983  -19.1997 N   0  0  0  0  0  0  0  0  0  0  0  0
  -25.7002   35.4111  -17.2272 H   0  0  0  0  0  0  0  0  0  0  0  0
  -24.4141   32.9275  -14.2075 H   0  0  0  0  0  0  0  0  0  0  0  0
  -26.1306   33.5025  -18.7536 H   0  0  0  0  0  0  0  0  0  0  0  0
  -24.7769   30.8985  -15.5733 H   0  0  0  0  0  0  0  0  0  0  0  0
  -24.2025   29.3033  -17.6721 H   0  0  0  0  0  0  0  0  0  0  0  0
  -25.4770   28.0689  -19.5550 H   0  0  0  0  0  0  0  0  0  0  0  0
  1  2  2  0  0  0  0
  1  3  1  0  0  0  0
  2  4  1  0  0  0  0
  2 12  1  0  0  0  0
  3  5  2  0  0  0  0
  3 13  1  0  0  0  0
  4  6  2  0  0  0  0
  4 14  1  0  0  0  0
  5  6  1  0  0  0  0
  5 15  1  0  0  0  0
  6  7  1  0  0  0  0
  7  8  1  0  0  0  0
  7  9  2  0  0  0  0
  8 10  2  0  0  0  0
  9 11  1  0  0  0  0
  9 16  1  0  0  0  0
 10 11  1  0  0  0  0
 11 17  1  0  0  0  0
M  END
>  <Column 1>
c1cc(-c2c[nH]nn2)ccn1 ZINC000000027317

>  <Total Molweight>
146.153

>  <cLogP>
-0.0519

>  <cLogS>
-1.161

>  <H-Acceptors>
4

>  <H-Donors>
1

>  <Total Surface Area>
118.87

>  <MMFF94 Energy>
8.1992

> <Gold.Version>
5.8.1

> <Gold.Id.Protein>
ID|2FQT|mol2

> <Gold.PLP.Fitness>
40.5154

> <Gold.PLP.PLP>
-25.8180

> <Gold.PLP.part.hbond>
-1.0000

> <Gold.PLP.part.metal>
-2.0000

> <Gold.PLP.part.buried>
-3.5220

> <Gold.PLP.part.nonpolar>
-20.5856

> <Gold.PLP.part.repulsive>
0.3176

> <Gold.PLP.ligand.clash>
0.0000

> <Gold.PLP.ligand.torsion>
0.4330

> <Gold.PLP.Chemscore.Hbond>
0.9913

> <Gold.PLP.Chemscore.CHOScore>
0.2579

> <Gold.PLP.Chemscore.Metal>
1.9693

> <Gold.Chemscore.Hbonds>
donor molecule, donor type, donor heavy atom, donor atom, acceptor molecule, acceptor atom, score
      P1  H   966  2177       L1    10  0.99
      L1  C     3    13       P1   422  0.26
      P1  M  1222  1222       L1     8  1.00
      P1  M  1222  1222       L1    10  0.97

> <Gold.PLP.Chemscore.Internal.Correction>
0.0000

> <Gold.Protein.RotatedTorsions>
[ 1849  621  620  617 ] final  -40.17 input   60.00 | X-H torsion

> <Gold.Protein.ActiveResidues>
 HIS54   GLU57   HIS58   ALA61   PHE62   ILE76   ILE77   ASP78   ILE79   SER80  
 PRO81   GLN125  CYS126  GLY127  GLN128  HIS132  CO701  

> <Gold.Protein.RotatedAtoms>
  -19.7362   28.3941  -13.5417 H   0  0  0  0  0  0  0  0  0  0  0  0  # atno 1849 bound_to 621 
  -18.6066   27.2925  -13.9401 LP  0  0  0  0  0  0  0  0  0  0  0  0  # atno 2431 bound_to 621 
  -18.2329   28.5215  -12.9318 LP  0  0  0  0  0  0  0  0  0  0  0  0  # atno 2432 bound_to 621 

$$$$
Compound 131|DecoysActives|sdf|138|dock1
  -GOLD-   6112412143D 1   1.00000     0.00000

 26 27  0  0  0  0  0  0  0  0  1 V2000
  -23.5338   29.4049  -17.4974 S   0  0  0  0  0  0  0  0  0  0  0  0
  -24.9753   29.5489  -18.3668 N   0  0  0  0  0  0  0  0  0  0  0  0
  -23.7170   31.0283  -16.8233 C   0  0  0  0  0  0  0  0  0  0  0  0
  -25.6082   30.7750  -18.1920 C   0  0  0  0  0  0  0  0  0  0  0  0
  -25.4541   28.4862  -19.2140 C   0  0  0  0  0  0  0  0  0  0  0  0
  -22.9006   31.4945  -16.0439 O   0  0  0  0  0  0  0  0  0  0  0  0
  -24.8783   31.5843  -17.3167 N   0  0  0  0  0  0  0  0  0  0  0  0
  -26.6577   31.0731  -18.7546 O   0  0  0  0  0  0  0  0  0  0  0  0
  -25.3007   32.8913  -16.9584 C   0  0  0  0  0  0  0  0  0  0  0  0
  -26.1371   33.6319  -17.8043 C   0  0  0  0  0  0  0  0  0  0  0  0
  -24.8941   33.4690  -15.7500 C   0  0  0  0  0  0  0  0  0  0  0  0
  -26.5558   34.9226  -17.4543 C   0  0  0  0  0  0  0  0  0  0  0  0
  -25.3150   34.7568  -15.4021 C   0  0  0  0  0  0  0  0  0  0  0  0
  -26.1454   35.4909  -16.2502 C   0  0  0  0  0  0  0  0  0  0  0  0
  -26.4786   36.7339  -15.7902 O   0  0  0  0  0  0  0  0  0  0  0  0
  -27.3968   37.4851  -16.5744 C   0  0  0  0  0  0  0  0  0  0  0  0
  -24.7166   28.2901  -19.9981 H   0  0  0  0  0  0  0  0  0  0  0  0
  -25.6022   27.5836  -18.6134 H   0  0  0  0  0  0  0  0  0  0  0  0
  -26.4034   28.7602  -19.6818 H   0  0  0  0  0  0  0  0  0  0  0  0
  -26.4803   33.2181  -18.7504 H   0  0  0  0  0  0  0  0  0  0  0  0
  -24.2432   32.9359  -15.0608 H   0  0  0  0  0  0  0  0  0  0  0  0
  -27.2006   35.4526  -18.1476 H   0  0  0  0  0  0  0  0  0  0  0  0
  -24.9905   35.1908  -14.4591 H   0  0  0  0  0  0  0  0  0  0  0  0
  -26.9914   37.6875  -17.5712 H   0  0  0  0  0  0  0  0  0  0  0  0
  -27.5524   38.4472  -16.0767 H   0  0  0  0  0  0  0  0  0  0  0  0
  -28.3672   36.9815  -16.6361 H   0  0  0  0  0  0  0  0  0  0  0  0
  1  2  1  0  0  0  0
  1  3  1  0  0  0  0
  2  4  1  0  0  0  0
  2  5  1  0  0  0  0
  3  6  2  0  0  0  0
  3  7  1  0  0  0  0
  4  8  2  0  0  0  0
  4  7  1  0  0  0  0
  5 17  1  0  0  0  0
  5 18  1  0  0  0  0
  5 19  1  0  0  0  0
  7  9  1  0  0  0  0
  9 10  2  0  0  0  0
  9 11  1  0  0  0  0
 10 12  1  0  0  0  0
 10 20  1  0  0  0  0
 11 13  2  0  0  0  0
 11 21  1  0  0  0  0
 12 14  2  0  0  0  0
 12 22  1  0  0  0  0
 13 14  1  0  0  0  0
 13 23  1  0  0  0  0
 14 15  1  0  0  0  0
 15 16  1  0  0  0  0
 16 24  1  0  0  0  0
 16 25  1  0  0  0  0
 16 26  1  0  0  0  0
M  END
>  <Column 1>
COc1ccc(-n2c(=O)sn(C)c2=O)cc1 ZINC000000027363

>  <Total Molweight>
238.266

>  <cLogP>
1.902

>  <cLogS>
-3.73

>  <H-Acceptors>
5

>  <H-Donors>
0

>  <Total Surface Area>
167.87

>  <MMFF94 Energy>
-2.6115

> <Gold.Version>
5.8.1

> <Gold.Id.Protein>
ID|2FQT|mol2

> <Gold.PLP.Fitness>
44.0843

> <Gold.PLP.PLP>
-38.3015

> <Gold.PLP.part.hbond>
0.0000

> <Gold.PLP.part.metal>
-1.0000

> <Gold.PLP.part.buried>
-5.3176

> <Gold.PLP.part.nonpolar>
-32.8087

> <Gold.PLP.part.repulsive>
0.2685

> <Gold.PLP.ligand.clash>
0.0000

> <Gold.PLP.ligand.torsion>
0.2849

> <Gold.PLP.Chemscore.Hbond>
0.0000

> <Gold.PLP.Chemscore.CHOScore>
0.0000

> <Gold.PLP.Chemscore.Metal>
1.0000

> <Gold.Chemscore.Hbonds>
donor molecule, donor type, donor heavy atom, donor atom, acceptor molecule, acceptor atom, score
      P1  M  1222  1222       L1     8  1.00

> <Gold.PLP.Chemscore.Internal.Correction>
0.3525

> <Gold.Protein.RotatedTorsions>
[ 1849  621  620  617 ] final  -84.74 input   60.00 | X-H torsion

> <Gold.Protein.ActiveResidues>
 HIS54   GLU57   HIS58   ALA61   PHE62   ILE76   ILE77   ASP78   ILE79   SER80  
 PRO81   GLN125  CYS126  GLY127  GLN128  HIS132  CO701  

> <Gold.Protein.RotatedAtoms>
  -19.6349   27.8062  -13.9268 H   0  0  0  0  0  0  0  0  0  0  0  0  # atno 1849 bound_to 621 
  -18.0683   27.5665  -13.5574 LP  0  0  0  0  0  0  0  0  0  0  0  0  # atno 2431 bound_to 621 
  -18.8733   28.8396  -12.9266 LP  0  0  0  0  0  0  0  0  0  0  0  0  # atno 2432 bound_to 621 

$$$$
Compound 132|DecoysActives|sdf|139|dock4
  -GOLD-   6112412143D 1   1.00000     0.00000

 29 31  0  0  0  0  0  0  0  0  1 V2000
  -25.7907   30.4657  -19.9081 S   0  0  1  0  0  0  0  0  0  0  0  0
  -27.0893   29.7328  -19.7432 O   0  0  0  0  0  0  0  0  0  0  0  0
  -25.7032   31.3393  -21.3404 N   0  0  0  0  0  0  0  0  0  0  0  0
  -25.8720   31.9748  -18.8511 C   0  0  0  0  0  0  0  0  0  0  0  0
  -24.6225   32.3379  -21.4570 C   0  0  0  0  0  0  0  0  0  0  0  0
  -25.8130   30.5910  -22.6072 C   0  0  0  0  0  0  0  0  0  0  0  0
  -26.7716   33.3547  -19.3108 S   0  0  0  0  0  0  0  0  0  0  0  0
  -25.2651   32.0350  -17.6828 N   0  0  0  0  0  0  0  0  0  0  0  0
  -24.8130   33.2354  -22.6844 C   0  0  0  0  0  0  0  0  0  0  0  0
  -25.9601   31.5293  -23.8114 C   0  0  0  0  0  0  0  0  0  0  0  0
  -26.3040   34.1385  -17.8511 C   0  0  0  0  0  0  0  0  0  0  0  0
  -25.4982   33.2723  -17.1079 C   0  0  0  0  0  0  0  0  0  0  0  0
  -24.8712   32.4563  -23.8839 O   0  0  0  0  0  0  0  0  0  0  0  0
  -26.6285   35.4267  -17.3939 C   0  0  0  0  0  0  0  0  0  0  0  0
  -25.0009   33.7110  -15.8638 C   0  0  0  0  0  0  0  0  0  0  0  0
  -26.1213   35.8374  -16.1573 C   0  0  0  0  0  0  0  0  0  0  0  0
  -25.3172   34.9921  -15.3994 C   0  0  0  0  0  0  0  0  0  0  0  0
  -24.5849   32.9765  -20.5670 H   0  0  0  0  0  0  0  0  0  0  0  0
  -23.6577   31.8194  -21.5319 H   0  0  0  0  0  0  0  0  0  0  0  0
  -24.9203   29.9661  -22.7392 H   0  0  0  0  0  0  0  0  0  0  0  0
  -26.6862   29.9284  -22.5872 H   0  0  0  0  0  0  0  0  0  0  0  0
  -23.9650   33.9215  -22.7770 H   0  0  0  0  0  0  0  0  0  0  0  0
  -25.7230   33.8417  -22.5987 H   0  0  0  0  0  0  0  0  0  0  0  0
  -25.9599   30.9459  -24.7376 H   0  0  0  0  0  0  0  0  0  0  0  0
  -26.9054   32.0841  -23.7694 H   0  0  0  0  0  0  0  0  0  0  0  0
  -27.2566   36.0875  -17.9840 H   0  0  0  0  0  0  0  0  0  0  0  0
  -24.3741   33.0494  -15.2740 H   0  0  0  0  0  0  0  0  0  0  0  0
  -26.3602   36.8316  -15.7844 H   0  0  0  0  0  0  0  0  0  0  0  0
  -24.9310   35.3267  -14.4392 H   0  0  0  0  0  0  0  0  0  0  0  0
  1  2  2  0  0  0  0
  1  3  1  0  0  0  0
  1  4  1  0  0  0  0
  3  5  1  0  0  0  0
  3  6  1  0  0  0  0
  4  7  1  0  0  0  0
  4  8  2  0  0  0  0
  5  9  1  0  0  0  0
  5 18  1  0  0  0  0
  5 19  1  0  0  0  0
  6 10  1  0  0  0  0
  6 20  1  0  0  0  0
  6 21  1  0  0  0  0
  7 11  1  0  0  0  0
  8 12  1  0  0  0  0
  9 13  1  0  0  0  0
  9 22  1  0  0  0  0
  9 23  1  0  0  0  0
 10 13  1  0  0  0  0
 10 24  1  0  0  0  0
 10 25  1  0  0  0  0
 11 14  1  0  0  0  0
 11 12  2  0  0  0  0
 12 15  1  0  0  0  0
 14 16  2  0  0  0  0
 14 26  1  0  0  0  0
 15 17  2  0  0  0  0
 15 27  1  0  0  0  0
 16 17  1  0  0  0  0
 16 28  1  0  0  0  0
 17 29  1  0  0  0  0
M  END
>  <Column 1>
O=[S@](c1nc2ccccc2s1)N1CCOCC1 ZINC000000027632

>  <Total Molweight>
268.36

>  <cLogP>
1.3918

>  <cLogS>
-2.887

>  <H-Acceptors>
4

>  <H-Donors>
0

>  <Total Surface Area>
187.12

>  <MMFF94 Energy>
78.461

> <Gold.Version>
5.8.1

> <Gold.Id.Protein>
ID|2FQT|mol2

> <Gold.PLP.Fitness>
44.3022

> <Gold.PLP.PLP>
-36.4746

> <Gold.PLP.part.hbond>
-1.0000

> <Gold.PLP.part.metal>
-1.0000

> <Gold.PLP.part.buried>
-2.0663

> <Gold.PLP.part.nonpolar>
-34.2378

> <Gold.PLP.part.repulsive>
0.2346

> <Gold.PLP.ligand.clash>
0.0000

> <Gold.PLP.ligand.torsion>
1.1348

> <Gold.PLP.Chemscore.Hbond>
1.0000

> <Gold.PLP.Chemscore.CHOScore>
0.0000

> <Gold.PLP.Chemscore.Metal>
1.0000

> <Gold.Chemscore.Hbonds>
donor molecule, donor type, donor heavy atom, donor atom, acceptor molecule, acceptor atom, score
      P1  H   966  2177       L1     2  1.00
      P1  M  1222  1222       L1     2  1.00

> <Gold.PLP.Chemscore.Internal.Correction>
1.0971

> <Gold.Protein.RotatedTorsions>
[ 1849  621  620  617 ] final  -41.03 input   60.00 | X-H torsion

> <Gold.Protein.ActiveResidues>
 HIS54   GLU57   HIS58   ALA61   PHE62   ILE76   ILE77   ASP78   ILE79   SER80  
 PRO81   GLN125  CYS126  GLY127  GLN128  HIS132  CO701  

> <Gold.Protein.RotatedAtoms>
  -19.7393   28.3835  -13.5504 H   0  0  0  0  0  0  0  0  0  0  0  0  # atno 1849 bound_to 621 
  -18.5936   27.2937  -13.9347 LP  0  0  0  0  0  0  0  0  0  0  0  0  # atno 2431 bound_to 621 
  -18.2428   28.5310  -12.9284 LP  0  0  0  0  0  0  0  0  0  0  0  0  # atno 2432 bound_to 621 

$$$$
Compound 133|DecoysActives|sdf|140|dock14
  -GOLD-   6112412143D 1   1.00000     0.00000

 35 35  0  0  0  0  0  0  0  0  1 V2000
  -27.0155   28.5599  -18.3360 O   0  0  0  0  0  0  0  0  0  0  0  0
  -27.7694   27.6846  -19.1445 N   0  0  0  0  0  0  0  0  0  0  0  0
  -26.5559   29.6660  -19.0567 C   0  0  0  0  0  0  0  0  0  0  0  0
  -27.7003   26.4670  -18.7022 C   0  0  0  0  0  0  0  0  0  0  0  0
  -26.4291   30.8427  -18.4530 N   0  0  0  0  0  0  0  0  0  0  0  0
  -26.2770   29.4081  -20.3287 N   0  0  0  0  0  0  0  0  0  0  0  0
  -28.4496   25.3930  -19.4464 C   0  0  0  0  0  0  0  0  0  0  0  0
  -26.9148   26.0524  -17.4827 C   0  0  0  0  0  0  0  0  0  0  0  0
  -25.9835   31.8251  -19.2169 C   0  0  0  0  0  0  0  0  0  0  0  0
  -25.8357   30.4424  -21.0279 C   0  0  0  0  0  0  0  0  0  0  0  0
  -25.6836   31.6564  -20.5032 N   0  0  0  0  0  0  0  0  0  0  0  0
  -25.8221   33.0797  -18.6575 N   0  0  0  0  0  0  0  0  0  0  0  0
  -25.5192   30.2534  -22.3610 N   0  0  0  0  0  0  0  0  0  0  0  0
  -25.5883   33.1790  -17.2347 C   0  0  0  0  0  0  0  0  0  0  0  0
  -25.4891   34.1821  -19.5337 C   0  0  0  0  0  0  0  0  0  0  0  0
  -25.2958   28.9058  -22.8363 C   0  0  0  0  0  0  0  0  0  0  0  0
  -25.8054   31.3194  -23.2957 C   0  0  0  0  0  0  0  0  0  0  0  0
  -27.7428   24.6354  -19.7955 H   0  0  0  0  0  0  0  0  0  0  0  0
  -28.9777   25.8133  -20.3067 H   0  0  0  0  0  0  0  0  0  0  0  0
  -29.1750   24.9268  -18.7742 H   0  0  0  0  0  0  0  0  0  0  0  0
  -27.0105   24.9762  -17.3156 H   0  0  0  0  0  0  0  0  0  0  0  0
  -27.2952   26.5792  -16.6033 H   0  0  0  0  0  0  0  0  0  0  0  0
  -25.8576   26.2920  -17.6267 H   0  0  0  0  0  0  0  0  0  0  0  0
  -26.3784   32.6805  -16.6614 H   0  0  0  0  0  0  0  0  0  0  0  0
  -24.6218   32.7382  -16.9655 H   0  0  0  0  0  0  0  0  0  0  0  0
  -25.5773   34.2247  -16.9078 H   0  0  0  0  0  0  0  0  0  0  0  0
  -26.2223   34.2901  -20.3411 H   0  0  0  0  0  0  0  0  0  0  0  0
  -24.4937   34.0471  -19.9714 H   0  0  0  0  0  0  0  0  0  0  0  0
  -25.4836   35.1321  -18.9878 H   0  0  0  0  0  0  0  0  0  0  0  0
  -24.5163   28.3990  -22.2560 H   0  0  0  0  0  0  0  0  0  0  0  0
  -26.2178   28.3159  -22.7859 H   0  0  0  0  0  0  0  0  0  0  0  0
  -24.9594   28.9047  -23.8790 H   0  0  0  0  0  0  0  0  0  0  0  0
  -25.3313   32.2596  -22.9909 H   0  0  0  0  0  0  0  0  0  0  0  0
  -26.8856   31.4790  -23.3880 H   0  0  0  0  0  0  0  0  0  0  0  0
  -25.4197   31.0845  -24.2940 H   0  0  0  0  0  0  0  0  0  0  0  0
  1  2  1  0  0  0  0
  1  3  1  0  0  0  0
  2  4  2  0  0  0  0
  3  5  2  0  0  0  0
  3  6  1  0  0  0  0
  4  7  1  0  0  0  0
  4  8  1  0  0  0  0
  5  9  1  0  0  0  0
  6 10  2  0  0  0  0
  7 18  1  0  0  0  0
  7 19  1  0  0  0  0
  7 20  1  0  0  0  0
  8 21  1  0  0  0  0
  8 22  1  0  0  0  0
  8 23  1  0  0  0  0
  9 11  2  0  0  0  0
  9 12  1  0  0  0  0
 10 13  1  0  0  0  0
 10 11  1  0  0  0  0
 12 14  1  0  0  0  0
 12 15  1  0  0  0  0
 13 16  1  0  0  0  0
 13 17  1  0  0  0  0
 14 24  1  0  0  0  0
 14 25  1  0  0  0  0
 14 26  1  0  0  0  0
 15 27  1  0  0  0  0
 15 28  1  0  0  0  0
 15 29  1  0  0  0  0
 16 30  1  0  0  0  0
 16 31  1  0  0  0  0
 16 32  1  0  0  0  0
 17 33  1  0  0  0  0
 17 34  1  0  0  0  0
 17 35  1  0  0  0  0
M  END
>  <Column 1>
CC(C)=NOc1nc(N(C)C)nc(N(C)C)n1 ZINC000000027644

>  <Total Molweight>
238.294

>  <cLogP>
1.6968

>  <cLogS>
-3.609

>  <H-Acceptors>
7

>  <H-Donors>
0

>  <Total Surface Area>
196.67

>  <MMFF94 Energy>
-161.42

> <Gold.Version>
5.8.1

> <Gold.Id.Protein>
ID|2FQT|mol2

> <Gold.PLP.Fitness>
50.0979

> <Gold.PLP.PLP>
-31.9374

> <Gold.PLP.part.hbond>
-1.8372

> <Gold.PLP.part.metal>
-2.9076

> <Gold.PLP.part.buried>
-0.8251

> <Gold.PLP.part.nonpolar>
-28.9921

> <Gold.PLP.part.repulsive>
0.2490

> <Gold.PLP.ligand.clash>
0.0000

> <Gold.PLP.ligand.torsion>
1.0406

> <Gold.PLP.Chemscore.Hbond>
0.8160

> <Gold.PLP.Chemscore.CHOScore>
0.0000

> <Gold.PLP.Chemscore.Metal>
2.9386

> <Gold.Chemscore.Hbonds>
donor molecule, donor type, donor heavy atom, donor atom, acceptor molecule, acceptor atom, score
      P1  H   966  2177       L1     6  0.82
      P1  M  1222  1222       L1     1  1.00
      P1  M  1222  1222       L1     2  0.94
      P1  M  1222  1222       L1     5  1.00

> <Gold.PLP.Chemscore.Internal.Correction>
0.1623

> <Gold.Protein.RotatedTorsions>
[ 1849  621  620  617 ] final   24.89 input   60.00 | X-H torsion

> <Gold.Protein.ActiveResidues>
 HIS54   GLU57   HIS58   ALA61   PHE62   ILE76   ILE77   ASP78   ILE79   SER80  
 PRO81   GLN125  CYS126  GLY127  GLN128  HIS132  CO701  

> <Gold.Protein.RotatedAtoms>
  -19.0358   28.8451  -12.9761 H   0  0  0  0  0  0  0  0  0  0  0  0  # atno 1849 bound_to 621 
  -19.5432   27.6777  -13.9899 LP  0  0  0  0  0  0  0  0  0  0  0  0  # atno 2431 bound_to 621 
  -18.0016   27.6822  -13.4515 LP  0  0  0  0  0  0  0  0  0  0  0  0  # atno 2432 bound_to 621 

$$$$
Compound 134|DecoysActives|sdf|141|dock3
  -GOLD-   6112412143D 1   1.00000     0.00000

 21 23  0  0  0  0  0  0  0  0  1 V2000
  -26.5214   27.8522  -19.9142 O   0  0  0  0  0  0  0  0  0  0  0  0
  -27.0876   29.1244  -19.8154 N   0  0  0  0  0  0  0  0  0  0  0  0
  -25.3837   27.7176  -19.1163 N   0  0  0  0  0  0  0  0  0  0  0  0
  -26.3023   29.7761  -18.9584 C   0  0  0  0  0  0  0  0  0  0  0  0
  -25.2473   28.9037  -18.5260 C   0  0  0  0  0  0  0  0  0  0  0  0
  -26.4497   31.0642  -18.5390 N   0  0  0  0  0  0  0  0  0  0  0  0
  -24.2754   29.2730  -17.6453 N   0  0  0  0  0  0  0  0  0  0  0  0
  -25.4829   31.4508  -17.6549 C   0  0  0  0  0  0  0  0  0  0  0  0
  -24.4544   30.5699  -17.2459 C   0  0  0  0  0  0  0  0  0  0  0  0
  -25.6020   32.8549  -17.1666 C   0  0  0  0  0  0  0  0  0  0  0  0
  -25.1067   33.2144  -15.8941 C   0  0  0  0  0  0  0  0  0  0  0  0
  -26.1981   33.8877  -17.9177 C   0  0  0  0  0  0  0  0  0  0  0  0
  -25.1994   34.5205  -15.4006 C   0  0  0  0  0  0  0  0  0  0  0  0
  -26.2928   35.1972  -17.4268 C   0  0  0  0  0  0  0  0  0  0  0  0
  -25.7936   35.5127  -16.1689 C   0  0  0  0  0  0  0  0  0  0  0  0
  -23.6904   30.8875  -16.5423 H   0  0  0  0  0  0  0  0  0  0  0  0
  -24.6326   32.4667  -15.2579 H   0  0  0  0  0  0  0  0  0  0  0  0
  -26.6088   33.7130  -18.9077 H   0  0  0  0  0  0  0  0  0  0  0  0
  -24.8050   34.7551  -14.4150 H   0  0  0  0  0  0  0  0  0  0  0  0
  -26.7590   35.9708  -18.0326 H   0  0  0  0  0  0  0  0  0  0  0  0
  -25.8671   36.5281  -15.7887 H   0  0  0  0  0  0  0  0  0  0  0  0
  1  2  1  0  0  0  0
  1  3  1  0  0  0  0
  2  4  2  0  0  0  0
  3  5  2  0  0  0  0
  4  6  1  0  0  0  0
  4  5  1  0  0  0  0
  5  7  1  0  0  0  0
  6  8  2  0  0  0  0
  7  9  2  0  0  0  0
  8 10  1  0  0  0  0
  8  9  1  0  0  0  0
  9 16  1  0  0  0  0
 10 11  2  0  0  0  0
 10 12  1  0  0  0  0
 11 13  1  0  0  0  0
 11 17  1  0  0  0  0
 12 14  2  0  0  0  0
 12 18  1  0  0  0  0
 13 15  2  0  0  0  0
 13 19  1  0  0  0  0
 14 15  1  0  0  0  0
 14 20  1  0  0  0  0
 15 21  1  0  0  0  0
M  END
>  <Column 1>
c1ccc(-c2cnc3nonc3n2)cc1 ZINC000000027762

>  <Total Molweight>
198.185

>  <cLogP>
1.9245

>  <cLogS>
-3.133

>  <H-Acceptors>
5

>  <H-Donors>
0

>  <Total Surface Area>
152.35

>  <MMFF94 Energy>
90.899

> <Gold.Version>
5.8.1

> <Gold.Id.Protein>
ID|2FQT|mol2

> <Gold.PLP.Fitness>
45.9954

> <Gold.PLP.PLP>
-31.7431

> <Gold.PLP.part.hbond>
-1.9190

> <Gold.PLP.part.metal>
-2.0000

> <Gold.PLP.part.buried>
-0.0912

> <Gold.PLP.part.nonpolar>
-28.8203

> <Gold.PLP.part.repulsive>
0.2563

> <Gold.PLP.ligand.clash>
0.0000

> <Gold.PLP.ligand.torsion>
0.3328

> <Gold.PLP.Chemscore.Hbond>
1.0000

> <Gold.PLP.Chemscore.CHOScore>
0.0000

> <Gold.PLP.Chemscore.Metal>
1.9863

> <Gold.Chemscore.Hbonds>
donor molecule, donor type, donor heavy atom, donor atom, acceptor molecule, acceptor atom, score
      P1  H   966  2177       L1     2  1.00
      P1  M  1222  1222       L1     2  1.00
      P1  M  1222  1222       L1     6  0.99

> <Gold.PLP.Chemscore.Internal.Correction>
0.0000

> <Gold.Protein.RotatedTorsions>
[ 1849  621  620  617 ] final  103.57 input   60.00 | X-H torsion

> <Gold.Protein.ActiveResidues>
 HIS54   GLU57   HIS58   ALA61   PHE62   ILE76   ILE77   ASP78   ILE79   SER80  
 PRO81   GLN125  CYS126  GLY127  GLN128  HIS132  CO701  

> <Gold.Protein.RotatedAtoms>
  -18.0287   28.2241  -13.0705 H   0  0  0  0  0  0  0  0  0  0  0  0  # atno 1849 bound_to 621 
  -19.5803   28.6556  -13.3036 LP  0  0  0  0  0  0  0  0  0  0  0  0  # atno 2431 bound_to 621 
  -18.9788   27.3296  -14.0428 LP  0  0  0  0  0  0  0  0  0  0  0  0  # atno 2432 bound_to 621 

$$$$
Compound 135|DecoysActives|sdf|142|dock2
  -GOLD-   6112412143D 1   1.00000     0.00000

 23 24  0  0  0  0  0  0  0  0  1 V2000
  -27.4493   38.6160  -17.1232 Br  0  0  0  0  0  0  0  0  0  0  0  0
  -26.3149   37.1327  -16.8283 C   0  0  0  0  0  0  0  0  0  0  0  0
  -26.6347   35.8971  -17.3895 C   0  0  0  0  0  0  0  0  0  0  0  0
  -25.1677   37.2854  -16.0506 C   0  0  0  0  0  0  0  0  0  0  0  0
  -25.7975   34.7981  -17.1619 C   0  0  0  0  0  0  0  0  0  0  0  0
  -24.3233   36.1938  -15.8369 C   0  0  0  0  0  0  0  0  0  0  0  0
  -24.6350   34.9536  -16.3974 C   0  0  0  0  0  0  0  0  0  0  0  0
  -26.2046   33.5098  -17.7643 C   0  0  0  0  0  0  0  0  0  0  0  0
  -23.7648   33.9151  -16.2346 O   0  0  0  0  0  0  0  0  0  0  0  0
  -25.3787   32.5304  -17.9377 N   0  0  0  0  0  0  0  0  0  0  0  0
  -25.9159   31.4401  -18.5431 N   0  0  0  0  0  0  0  0  0  0  0  0
  -26.1935   30.3349  -17.8271 N   0  0  0  0  0  0  0  0  0  0  0  0
  -26.2269   31.1807  -19.8850 C   0  0  0  0  0  0  0  0  0  0  0  0
  -26.7653   29.4888  -18.6725 N   0  0  0  0  0  0  0  0  0  0  0  0
  -26.8001   29.9997  -19.9461 N   0  0  0  0  0  0  0  0  0  0  0  0
  -25.9333   32.0079  -20.9133 N   0  0  0  0  0  0  0  0  0  0  0  0
  -27.5396   35.7888  -17.9819 H   0  0  0  0  0  0  0  0  0  0  0  0
  -24.9184   38.2497  -15.6140 H   0  0  0  0  0  0  0  0  0  0  0  0
  -23.4207   36.3318  -15.2478 H   0  0  0  0  0  0  0  0  0  0  0  0
  -27.2838   33.4217  -17.9957 H   0  0  0  0  0  0  0  0  0  0  0  0
  -22.8545   34.2520  -16.2010 H   0  0  0  0  0  0  0  0  0  0  0  0
  -25.4548   32.8825  -20.7247 H   0  0  0  0  0  0  0  0  0  0  0  0
  -26.3602   31.9156  -21.8286 H   0  0  0  0  0  0  0  0  0  0  0  0
  1  2  1  0  0  0  0
  2  3  2  0  0  0  0
  2  4  1  0  0  0  0
  3  5  1  0  0  0  0
  3 17  1  0  0  0  0
  4  6  2  0  0  0  0
  4 18  1  0  0  0  0
  5  7  2  0  0  0  0
  5  8  1  0  0  0  0
  6  7  1  0  0  0  0
  6 19  1  0  0  0  0
  7  9  1  0  0  0  0
  8 10  2  0  0  0  0
  8 20  1  0  0  0  0
  9 21  1  0  0  0  0
 10 11  1  0  0  0  0
 11 12  1  0  0  0  0
 11 13  1  0  0  0  0
 12 14  2  0  0  0  0
 13 15  2  0  0  0  0
 13 16  1  0  0  0  0
 14 15  1  0  0  0  0
 16 22  1  0  0  0  0
 16 23  1  0  0  0  0
M  END
>  <Column 1>
Nc1nnnn1/N=C/c1cc(Br)ccc1O ZINC000000027999

>  <Total Molweight>
283.089

>  <cLogP>
1.606

>  <cLogS>
-4.325

>  <H-Acceptors>
7

>  <H-Donors>
2

>  <Total Surface Area>
176.76

>  <MMFF94 Energy>
70.497

> <Gold.Version>
5.8.1

> <Gold.Id.Protein>
ID|2FQT|mol2

> <Gold.PLP.Fitness>
54.3116

> <Gold.PLP.PLP>
-35.2553

> <Gold.PLP.part.hbond>
-2.0000

> <Gold.PLP.part.metal>
-2.7594

> <Gold.PLP.part.buried>
-3.9749

> <Gold.PLP.part.nonpolar>
-27.1985

> <Gold.PLP.part.repulsive>
0.3343

> <Gold.PLP.ligand.clash>
0.0000

> <Gold.PLP.ligand.torsion>
0.7823

> <Gold.PLP.Chemscore.Hbond>
1.0203

> <Gold.PLP.Chemscore.CHOScore>
0.0000

> <Gold.PLP.Chemscore.Metal>
2.9265

> <Gold.Chemscore.Hbonds>
donor molecule, donor type, donor heavy atom, donor atom, acceptor molecule, acceptor atom, score
      L1  H    16    23       P1   954  0.02
      P1  H   966  2177       L1    15  1.00
      P1  M  1222  1222       L1    12  0.99
      P1  M  1222  1222       L1    14  1.00
      P1  M  1222  1222       L1    15  0.94

> <Gold.PLP.Chemscore.Internal.Correction>
0.0011

> <Gold.Protein.RotatedTorsions>
[ 1849  621  620  617 ] final  174.68 input   60.00 | X-H torsion

> <Gold.Protein.ActiveResidues>
 HIS54   GLU57   HIS58   ALA61   PHE62   ILE76   ILE77   ASP78   ILE79   SER80  
 PRO81   GLN125  CYS126  GLY127  GLN128  HIS132  CO701  

> <Gold.Protein.RotatedAtoms>
  -18.2653   27.4001  -13.7418 H   0  0  0  0  0  0  0  0  0  0  0  0  # atno 1849 bound_to 621 
  -18.5709   28.7499  -12.8858 LP  0  0  0  0  0  0  0  0  0  0  0  0  # atno 2431 bound_to 621 
  -19.7499   28.0652  -13.7846 LP  0  0  0  0  0  0  0  0  0  0  0  0  # atno 2432 bound_to 621 

$$$$
Compound 136|DecoysActives|sdf|143|dock3
  -GOLD-   6112412143D 1   1.00000     0.00000

 30 31  0  0  0  0  0  0  0  0  1 V2000
  -26.2249   37.4662  -15.7262 O   0  0  0  0  0  0  0  0  0  0  0  0
  -25.4486   36.4221  -16.1544 C   0  0  0  0  0  0  0  0  0  0  0  0
  -27.5225   37.6131  -16.2946 C   0  0  0  0  0  0  0  0  0  0  0  0
  -24.0611   36.6352  -16.1323 C   0  0  0  0  0  0  0  0  0  0  0  0
  -25.9364   35.1928  -16.6059 C   0  0  0  0  0  0  0  0  0  0  0  0
  -27.4068   38.5344  -17.4957 C   0  0  0  0  0  0  0  0  0  0  0  0
  -23.5795   37.8397  -15.6932 O   0  0  0  0  0  0  0  0  0  0  0  0
  -23.1696   35.6449  -16.5457 C   0  0  0  0  0  0  0  0  0  0  0  0
  -25.0422   34.1985  -17.0239 C   0  0  0  0  0  0  0  0  0  0  0  0
  -23.6628   34.4206  -16.9933 C   0  0  0  0  0  0  0  0  0  0  0  0
  -25.5870   32.9105  -17.5050 C   0  0  0  0  0  0  0  0  0  0  0  0
  -25.3031   32.4561  -18.6814 N   0  0  0  0  0  0  0  0  0  0  0  0
  -25.9100   31.2803  -18.9991 N   0  0  0  0  0  0  0  0  0  0  0  0
  -26.1887   30.3882  -18.0314 N   0  0  0  0  0  0  0  0  0  0  0  0
  -26.2897   30.7234  -20.2284 C   0  0  0  0  0  0  0  0  0  0  0  0
  -26.8306   29.3937  -18.6278 N   0  0  0  0  0  0  0  0  0  0  0  0
  -26.9073   29.5895  -19.9838 N   0  0  0  0  0  0  0  0  0  0  0  0
  -26.0123   31.2601  -21.4381 N   0  0  0  0  0  0  0  0  0  0  0  0
  -28.2103   38.0590  -15.5667 H   0  0  0  0  0  0  0  0  0  0  0  0
  -27.9034   36.6403  -16.6257 H   0  0  0  0  0  0  0  0  0  0  0  0
  -27.0016   34.9938  -16.6395 H   0  0  0  0  0  0  0  0  0  0  0  0
  -28.3809   38.6796  -17.9711 H   0  0  0  0  0  0  0  0  0  0  0  0
  -27.0105   39.5103  -17.1961 H   0  0  0  0  0  0  0  0  0  0  0  0
  -26.7113   38.1207  -18.2334 H   0  0  0  0  0  0  0  0  0  0  0  0
  -24.3227   38.4307  -15.4960 H   0  0  0  0  0  0  0  0  0  0  0  0
  -22.0965   35.8086  -16.5256 H   0  0  0  0  0  0  0  0  0  0  0  0
  -22.9683   33.6468  -17.3139 H   0  0  0  0  0  0  0  0  0  0  0  0
  -26.2231   32.3604  -16.7860 H   0  0  0  0  0  0  0  0  0  0  0  0
  -25.4915   32.1306  -21.4815 H   0  0  0  0  0  0  0  0  0  0  0  0
  -26.4766   30.9741  -22.2922 H   0  0  0  0  0  0  0  0  0  0  0  0
  1  2  1  0  0  0  0
  1  3  1  0  0  0  0
  2  4  2  0  0  0  0
  2  5  1  0  0  0  0
  3  6  1  0  0  0  0
  3 19  1  0  0  0  0
  3 20  1  0  0  0  0
  4  7  1  0  0  0  0
  4  8  1  0  0  0  0
  5  9  2  0  0  0  0
  5 21  1  0  0  0  0
  6 22  1  0  0  0  0
  6 23  1  0  0  0  0
  6 24  1  0  0  0  0
  7 25  1  0  0  0  0
  8 10  2  0  0  0  0
  8 26  1  0  0  0  0
  9 11  1  0  0  0  0
  9 10  1  0  0  0  0
 10 27  1  0  0  0  0
 11 12  2  0  0  0  0
 11 28  1  0  0  0  0
 12 13  1  0  0  0  0
 13 14  1  0  0  0  0
 13 15  1  0  0  0  0
 14 16  2  0  0  0  0
 15 17  2  0  0  0  0
 15 18  1  0  0  0  0
 16 17  1  0  0  0  0
 18 29  1  0  0  0  0
 18 30  1  0  0  0  0
M  END
>  <Column 1>
CCOc1cc(/C=N/n2nnnc2N)ccc1O ZINC000000028011

>  <Total Molweight>
248.245

>  <cLogP>
1.2171

>  <cLogS>
-3.809

>  <H-Acceptors>
8

>  <H-Donors>
2

>  <Total Surface Area>
194.15

>  <MMFF94 Energy>
73.957

> <Gold.Version>
5.8.1

> <Gold.Id.Protein>
ID|2FQT|mol2

> <Gold.PLP.Fitness>
55.9977

> <Gold.PLP.PLP>
-37.8267

> <Gold.PLP.part.hbond>
-2.0000

> <Gold.PLP.part.metal>
-2.7282

> <Gold.PLP.part.buried>
-4.9206

> <Gold.PLP.part.nonpolar>
-29.1907

> <Gold.PLP.part.repulsive>
0.4560

> <Gold.PLP.ligand.clash>
0.0000

> <Gold.PLP.ligand.torsion>
1.2833

> <Gold.PLP.Chemscore.Hbond>
1.0000

> <Gold.PLP.Chemscore.CHOScore>
0.0000

> <Gold.PLP.Chemscore.Metal>
2.9559

> <Gold.Chemscore.Hbonds>
donor molecule, donor type, donor heavy atom, donor atom, acceptor molecule, acceptor atom, score
      P1  H   966  2177       L1    17  1.00
      P1  M  1222  1222       L1    14  0.99
      P1  M  1222  1222       L1    16  1.00
      P1  M  1222  1222       L1    17  0.97

> <Gold.PLP.Chemscore.Internal.Correction>
0.0023

> <Gold.Protein.RotatedTorsions>
[ 1849  621  620  617 ] final -130.03 input   60.00 | X-H torsion

> <Gold.Protein.ActiveResidues>
 HIS54   GLU57   HIS58   ALA61   PHE62   ILE76   ILE77   ASP78   ILE79   SER80  
 PRO81   GLN125  CYS126  GLY127  GLN128  HIS132  CO701  

> <Gold.Protein.RotatedAtoms>
  -19.0775   27.3655  -14.0484 H   0  0  0  0  0  0  0  0  0  0  0  0  # atno 1849 bound_to 621 
  -17.9887   28.1401  -13.1197 LP  0  0  0  0  0  0  0  0  0  0  0  0  # atno 2431 bound_to 621 
  -19.5142   28.7098  -13.2419 LP  0  0  0  0  0  0  0  0  0  0  0  0  # atno 2432 bound_to 621 

$$$$
Compound 137|DecoysActives|sdf|144|dock16
  -GOLD-   6112412143D 1   1.00000     0.00000

 22 22  0  0  0  0  0  0  0  0  1 V2000
  -23.3344   30.2827  -17.1754 S   0  0  0  0  0  0  0  0  0  0  0  0
  -23.5927   31.5074  -16.0556 C   0  0  0  0  0  0  0  0  0  0  0  0
  -22.9015   31.4528  -14.8550 N   0  0  0  0  0  0  0  0  0  0  0  0
  -24.5252   32.6341  -16.3046 C   0  0  0  0  0  0  0  0  0  0  0  0
  -21.9989   30.4335  -14.5212 N   0  0  0  0  0  0  0  0  0  0  0  0
  -24.6551   33.6523  -15.3540 C   0  0  0  0  0  0  0  0  0  0  0  0
  -25.2647   32.6896  -17.4895 C   0  0  0  0  0  0  0  0  0  0  0  0
  -25.5286   34.7211  -15.5824 C   0  0  0  0  0  0  0  0  0  0  0  0
  -26.1353   33.7595  -17.7109 C   0  0  0  0  0  0  0  0  0  0  0  0
  -26.2723   34.7783  -16.7626 C   0  0  0  0  0  0  0  0  0  0  0  0
  -27.1586   35.7611  -17.1074 O   0  0  0  0  0  0  0  0  0  0  0  0
  -27.4023   36.7752  -16.1408 C   0  0  0  0  0  0  0  0  0  0  0  0
  -23.0809   32.2140  -14.1986 H   0  0  0  0  0  0  0  0  0  0  0  0
  -22.5082   29.5511  -14.4315 H   0  0  0  0  0  0  0  0  0  0  0  0
  -21.6202   30.6219  -13.5881 H   0  0  0  0  0  0  0  0  0  0  0  0
  -24.0789   33.6140  -14.4322 H   0  0  0  0  0  0  0  0  0  0  0  0
  -25.1735   31.9099  -18.2410 H   0  0  0  0  0  0  0  0  0  0  0  0
  -25.6032   35.4885  -14.8194 H   0  0  0  0  0  0  0  0  0  0  0  0
  -26.7107   33.8027  -18.6328 H   0  0  0  0  0  0  0  0  0  0  0  0
  -27.8574   36.3571  -15.2369 H   0  0  0  0  0  0  0  0  0  0  0  0
  -28.1135   37.4852  -16.5736 H   0  0  0  0  0  0  0  0  0  0  0  0
  -26.4851   37.3248  -15.9047 H   0  0  0  0  0  0  0  0  0  0  0  0
  1  2  2  0  0  0  0
  2  3  1  0  0  0  0
  2  4  1  0  0  0  0
  3  5  1  0  0  0  0
  3 13  1  0  0  0  0
  4  6  2  0  0  0  0
  4  7  1  0  0  0  0
  5 14  1  0  0  0  0
  5 15  1  0  0  0  0
  6  8  1  0  0  0  0
  6 16  1  0  0  0  0
  7  9  2  0  0  0  0
  7 17  1  0  0  0  0
  8 10  2  0  0  0  0
  8 18  1  0  0  0  0
  9 10  1  0  0  0  0
  9 19  1  0  0  0  0
 10 11  1  0  0  0  0
 11 12  1  0  0  0  0
 12 20  1  0  0  0  0
 12 21  1  0  0  0  0
 12 22  1  0  0  0  0
M  END
>  <Column 1>
COc1ccc(C(=S)NN)cc1 ZINC000000028271

>  <Total Molweight>
182.246

>  <cLogP>
0.6107

>  <cLogS>
-1.93

>  <H-Acceptors>
3

>  <H-Donors>
2

>  <Total Surface Area>
148.21

>  <MMFF94 Energy>
81.163

> <Gold.Version>
5.8.1

> <Gold.Id.Protein>
ID|2FQT|mol2

> <Gold.PLP.Fitness>
36.9097

> <Gold.PLP.PLP>
-30.9473

> <Gold.PLP.part.hbond>
-2.0000

> <Gold.PLP.part.metal>
0.0000

> <Gold.PLP.part.buried>
-3.7211

> <Gold.PLP.part.nonpolar>
-26.1420

> <Gold.PLP.part.repulsive>
0.0908

> <Gold.PLP.ligand.clash>
0.0000

> <Gold.PLP.ligand.torsion>
0.0188

> <Gold.PLP.Chemscore.Hbond>
2.0000

> <Gold.PLP.Chemscore.CHOScore>
0.0000

> <Gold.PLP.Chemscore.Metal>
0.0000

> <Gold.Chemscore.Hbonds>
donor molecule, donor type, donor heavy atom, donor atom, acceptor molecule, acceptor atom, score
      L1  H     5    14       P1   427  1.00
      L1  H     5    15       P1   611  1.00

> <Gold.PLP.Chemscore.Internal.Correction>
0.0001

> <Gold.Protein.RotatedTorsions>
[ 1849  621  620  617 ] final  -45.52 input   60.00 | X-H torsion

> <Gold.Protein.ActiveResidues>
 HIS54   GLU57   HIS58   ALA61   PHE62   ILE76   ILE77   ASP78   ILE79   SER80  
 PRO81   GLN125  CYS126  GLY127  GLN128  HIS132  CO701  

> <Gold.Protein.RotatedAtoms>
  -19.7524   28.3270  -13.5953 H   0  0  0  0  0  0  0  0  0  0  0  0  # atno 1849 bound_to 621 
  -18.5265   27.3026  -13.9051 LP  0  0  0  0  0  0  0  0  0  0  0  0  # atno 2431 bound_to 621 
  -18.2968   28.5790  -12.9128 LP  0  0  0  0  0  0  0  0  0  0  0  0  # atno 2432 bound_to 621 

$$$$
Compound 138|DecoysActives|sdf|145|dock6
  -GOLD-   6112412143D 1   1.00000     0.00000

 31 32  0  0  0  0  0  0  0  0  1 V2000
  -23.6301   32.4864  -18.1236 S   0  0  0  0  0  0  0  0  0  0  0  0
  -22.9642   31.8246  -17.0213 O   0  0  0  0  0  0  0  0  0  0  0  0
  -22.8711   33.1592  -19.1572 O   0  0  0  0  0  0  0  0  0  0  0  0
  -24.6429   31.3533  -18.8757 N   0  0  0  0  0  0  0  0  0  0  0  0
  -24.7635   33.6722  -17.4322 C   0  0  0  0  0  0  0  0  0  0  0  0
  -25.3053   30.3488  -17.9973 C   0  0  0  0  0  0  0  0  0  0  0  0
  -25.5832   31.8673  -19.9107 C   0  0  0  0  0  0  0  0  0  0  0  0
  -25.6220   34.3820  -18.2757 C   0  0  0  0  0  0  0  0  0  0  0  0
  -24.7435   33.9288  -16.0588 C   0  0  0  0  0  0  0  0  0  0  0  0
  -25.8977   29.2303  -18.8637 C   0  0  0  0  0  0  0  0  0  0  0  0
  -26.1643   30.6865  -20.6985 C   0  0  0  0  0  0  0  0  0  0  0  0
  -26.4936   35.3275  -17.7331 C   0  0  0  0  0  0  0  0  0  0  0  0
  -25.6176   34.8757  -15.5227 C   0  0  0  0  0  0  0  0  0  0  0  0
  -26.8263   29.7575  -19.8250 O   0  0  0  0  0  0  0  0  0  0  0  0
  -26.4924   35.5870  -16.3556 C   0  0  0  0  0  0  0  0  0  0  0  0
  -27.4509   36.5838  -15.7719 C   0  0  0  0  0  0  0  0  0  0  0  0
  -26.1088   30.8358  -17.4341 H   0  0  0  0  0  0  0  0  0  0  0  0
  -24.5865   29.9127  -17.2975 H   0  0  0  0  0  0  0  0  0  0  0  0
  -25.0669   32.5371  -20.6043 H   0  0  0  0  0  0  0  0  0  0  0  0
  -26.3973   32.4120  -19.4201 H   0  0  0  0  0  0  0  0  0  0  0  0
  -25.6165   34.2092  -19.3496 H   0  0  0  0  0  0  0  0  0  0  0  0
  -24.0529   33.4025  -15.4036 H   0  0  0  0  0  0  0  0  0  0  0  0
  -25.1113   28.6777  -19.3916 H   0  0  0  0  0  0  0  0  0  0  0  0
  -26.4414   28.5198  -18.2333 H   0  0  0  0  0  0  0  0  0  0  0  0
  -26.9042   31.0482  -21.4192 H   0  0  0  0  0  0  0  0  0  0  0  0
  -25.3822   30.1578  -21.2565 H   0  0  0  0  0  0  0  0  0  0  0  0
  -27.1677   35.8706  -18.3927 H   0  0  0  0  0  0  0  0  0  0  0  0
  -25.6057   35.0648  -14.4510 H   0  0  0  0  0  0  0  0  0  0  0  0
  -27.0288   37.0544  -14.8778 H   0  0  0  0  0  0  0  0  0  0  0  0
  -27.6671   37.3835  -16.4881 H   0  0  0  0  0  0  0  0  0  0  0  0
  -28.3879   36.0871  -15.5021 H   0  0  0  0  0  0  0  0  0  0  0  0
  1  2  2  0  0  0  0
  1  3  2  0  0  0  0
  1  4  1  0  0  0  0
  1  5  1  0  0  0  0
  4  6  1  0  0  0  0
  4  7  1  0  0  0  0
  5  8  2  0  0  0  0
  5  9  1  0  0  0  0
  6 10  1  0  0  0  0
  6 17  1  0  0  0  0
  6 18  1  0  0  0  0
  7 11  1  0  0  0  0
  7 19  1  0  0  0  0
  7 20  1  0  0  0  0
  8 12  1  0  0  0  0
  8 21  1  0  0  0  0
  9 13  2  0  0  0  0
  9 22  1  0  0  0  0
 10 14  1  0  0  0  0
 10 23  1  0  0  0  0
 10 24  1  0  0  0  0
 11 14  1  0  0  0  0
 11 25  1  0  0  0  0
 11 26  1  0  0  0  0
 12 15  2  0  0  0  0
 12 27  1  0  0  0  0
 13 15  1  0  0  0  0
 13 28  1  0  0  0  0
 15 16  1  0  0  0  0
 16 29  1  0  0  0  0
 16 30  1  0  0  0  0
 16 31  1  0  0  0  0
M  END
>  <Column 1>
Cc1ccc(S(=O)(=O)N2CCOCC2)cc1 ZINC000000028343

>  <Total Molweight>
241.31

>  <cLogP>
1.0463

>  <cLogS>
-1.166

>  <H-Acceptors>
4

>  <H-Donors>
0

>  <Total Surface Area>
175.94

>  <MMFF94 Energy>
28.358

> <Gold.Version>
5.8.1

> <Gold.Id.Protein>
ID|2FQT|mol2

> <Gold.PLP.Fitness>
44.4990

> <Gold.PLP.PLP>
-36.0477

> <Gold.PLP.part.hbond>
-1.0000

> <Gold.PLP.part.metal>
-1.0000

> <Gold.PLP.part.buried>
-1.3648

> <Gold.PLP.part.nonpolar>
-33.7778

> <Gold.PLP.part.repulsive>
0.0554

> <Gold.PLP.ligand.clash>
0.0087

> <Gold.PLP.ligand.torsion>
1.4868

> <Gold.PLP.Chemscore.Hbond>
1.0000

> <Gold.PLP.Chemscore.CHOScore>
0.0000

> <Gold.PLP.Chemscore.Metal>
0.9951

> <Gold.Chemscore.Hbonds>
donor molecule, donor type, donor heavy atom, donor atom, acceptor molecule, acceptor atom, score
      P1  H   966  2177       L1    14  1.00
      P1  M  1222  1222       L1    14  1.00

> <Gold.PLP.Chemscore.Internal.Correction>
2.4632

> <Gold.Protein.RotatedTorsions>
[ 1849  621  620  617 ] final -105.34 input   60.00 | X-H torsion

> <Gold.Protein.ActiveResidues>
 HIS54   GLU57   HIS58   ALA61   PHE62   ILE76   ILE77   ASP78   ILE79   SER80  
 PRO81   GLN125  CYS126  GLY127  GLN128  HIS132  CO701  

> <Gold.Protein.RotatedAtoms>
  -19.4230   27.5662  -14.0248 H   0  0  0  0  0  0  0  0  0  0  0  0  # atno 1849 bound_to 621 
  -17.9633   27.8087  -13.3477 LP  0  0  0  0  0  0  0  0  0  0  0  0  # atno 2431 bound_to 621 
  -19.1917   28.8390  -13.0376 LP  0  0  0  0  0  0  0  0  0  0  0  0  # atno 2432 bound_to 621 

$$$$
Compound 139|DecoysActives|sdf|146|dock5
  -GOLD-   6112412143D 1   1.00000     0.00000

 25 26  0  0  0  0  0  0  0  0  4 V2000
  -26.8467   29.6470  -19.9061 O   0  0  0  0  0  0  0  0  0  0  0  0
  -26.1238   30.6243  -20.1365 N   0  3  0  0  0  0  0  0  0  0  0  0
  -25.5782   30.9021  -21.2081 O   0  5  0  0  0  0  0  0  0  0  0  0
  -25.9005   31.5208  -19.0468 C   0  0  0  0  0  0  0  0  0  0  0  0
  -25.3375   31.2433  -17.8029 C   0  0  0  0  0  0  0  0  0  0  0  0
  -26.2106   32.8639  -19.0021 C   0  0  0  0  0  0  0  0  0  0  0  0
  -25.2935   32.3245  -17.0235 N   0  0  0  0  0  0  0  0  0  0  0  0
  -25.8200   33.3510  -17.7602 N   0  0  0  0  0  0  0  0  0  0  0  0
  -25.9558   34.6917  -17.2987 C   0  0  0  0  0  0  0  0  0  0  0  0
  -25.9815   34.9567  -15.9765 C   0  0  0  0  0  0  0  0  0  0  0  0
  -26.0131   35.8232  -18.2654 C   0  0  0  0  0  0  0  0  0  0  0  0
  -26.0883   36.1193  -15.2530 N   0  0  0  0  0  0  0  0  0  0  0  0
  -26.5011   37.0031  -18.0977 N   0  3  0  0  0  0  0  0  0  0  0  0
  -26.2152   37.4861  -15.7102 C   0  0  0  0  0  0  0  0  0  0  0  0
  -27.1551   37.5852  -16.9024 C   0  0  0  0  0  0  0  0  0  0  0  0
  -24.9592   30.3006  -17.4223 H   0  0  0  0  0  0  0  0  0  0  0  0
  -26.6793   33.4836  -19.7517 H   0  0  0  0  0  0  0  0  0  0  0  0
  -25.9075   34.1127  -15.2815 H   0  0  0  0  0  0  0  0  0  0  0  0
  -25.5706   35.6425  -19.2583 H   0  0  0  0  0  0  0  0  0  0  0  0
  -26.0114   36.0012  -14.2369 H   0  0  0  0  0  0  0  0  0  0  0  0
  -26.4402   37.6461  -18.8941 H   0  0  0  0  0  0  0  0  0  0  0  0
  -25.2220   37.8844  -15.9499 H   0  0  0  0  0  0  0  0  0  0  0  0
  -26.6156   38.0891  -14.8877 H   0  0  0  0  0  0  0  0  0  0  0  0
  -28.1026   37.0584  -16.7488 H   0  0  0  0  0  0  0  0  0  0  0  0
  -27.3637   38.6329  -17.1396 H   0  0  0  0  0  0  0  0  0  0  0  0
  1  2  2  0  0  0  0
  2  3  1  0  0  0  0
  2  4  1  0  0  0  0
  4  5  1  0  0  0  0
  4  6  2  0  0  0  0
  5  7  2  0  0  0  0
  5 16  1  0  0  0  0
  6  8  1  0  0  0  0
  6 17  1  0  0  0  0
  7  8  1  0  0  0  0
  8  9  1  0  0  0  0
  9 10  2  0  0  0  0
  9 11  1  0  0  0  0
 10 12  1  0  0  0  0
 10 18  1  0  0  0  0
 11 13  2  0  0  0  0
 11 19  1  0  0  0  0
 12 14  1  0  0  0  0
 12 20  1  0  0  0  0
 13 15  1  0  0  0  0
 13 21  1  0  0  0  0
 14 15  1  0  0  0  0
 14 22  1  0  0  0  0
 14 23  1  0  0  0  0
 15 24  1  0  0  0  0
 15 25  1  0  0  0  0
M  CHG  1   2   1
M  CHG  1   3  -1
M  CHG  1  13   1
M  END
>  <Column 1>
O=[N+]([O-])c1cnn(C2=CNCC[NH+]=C2)c1 ZINC000000028377

>  <Total Molweight>
208.2

>  <cLogP>
-1.5045

>  <cLogS>
-1.647

>  <H-Acceptors>
5

>  <H-Donors>
2

>  <Total Surface Area>
148.33

>  <MMFF94 Energy>
74.723

> <Gold.Version>
5.8.1

> <Gold.Id.Protein>
ID|2FQT|mol2

> <Gold.PLP.Fitness>
47.8129

> <Gold.PLP.PLP>
-35.7154

> <Gold.PLP.part.hbond>
-2.0000

> <Gold.PLP.part.metal>
-1.0000

> <Gold.PLP.part.buried>
-4.9452

> <Gold.PLP.part.nonpolar>
-28.6301

> <Gold.PLP.part.repulsive>
0.2554

> <Gold.PLP.ligand.clash>
0.0000

> <Gold.PLP.ligand.torsion>
1.3483

> <Gold.PLP.Chemscore.Hbond>
1.9920

> <Gold.PLP.Chemscore.CHOScore>
1.0000

> <Gold.PLP.Chemscore.Metal>
0.9693

> <Gold.Chemscore.Hbonds>
donor molecule, donor type, donor heavy atom, donor atom, acceptor molecule, acceptor atom, score
      L1  H    12    20       P1   431  0.99
      P1  H   966  2177       L1     1  1.00
      L1  C     6    17       P1   954  1.00
      P1  M  1222  1222       L1     1  0.97

> <Gold.PLP.Chemscore.Internal.Correction>
0.0021

> <Gold.Protein.RotatedTorsions>
[ 1849  621  620  617 ] final  -74.77 input   60.00 | X-H torsion

> <Gold.Protein.ActiveResidues>
 HIS54   GLU57   HIS58   ALA61   PHE62   ILE76   ILE77   ASP78   ILE79   SER80  
 PRO81   GLN125  CYS126  GLY127  GLN128  HIS132  CO701  

> <Gold.Protein.RotatedAtoms>
  -19.7031   27.9366  -13.8573 H   0  0  0  0  0  0  0  0  0  0  0  0  # atno 1849 bound_to 621 
  -18.1569   27.4707  -13.6566 LP  0  0  0  0  0  0  0  0  0  0  0  0  # atno 2431 bound_to 621 
  -18.7160   28.8040  -12.8974 LP  0  0  0  0  0  0  0  0  0  0  0  0  # atno 2432 bound_to 621 

$$$$
Compound 140|DecoysActives|sdf|147|dock16
  -GOLD-   6112412153D 1   1.00000     0.00000

 25 26  0  0  0  0  0  0  0  0  1 V2000
  -26.9377   35.5134  -16.5391 O   0  0  0  0  0  0  0  0  0  0  0  0
  -25.5720   35.6262  -16.5099 C   0  0  0  0  0  0  0  0  0  0  0  0
  -27.6997   36.5895  -16.0036 C   0  0  0  0  0  0  0  0  0  0  0  0
  -24.8330   34.5706  -17.0738 C   0  0  0  0  0  0  0  0  0  0  0  0
  -24.8805   36.7125  -15.9608 C   0  0  0  0  0  0  0  0  0  0  0  0
  -23.4315   34.6089  -17.0840 C   0  0  0  0  0  0  0  0  0  0  0  0
  -25.5323   33.4021  -17.6656 C   0  0  0  0  0  0  0  0  0  0  0  0
  -23.4820   36.7461  -15.9732 C   0  0  0  0  0  0  0  0  0  0  0  0
  -22.7584   35.6972  -16.5334 C   0  0  0  0  0  0  0  0  0  0  0  0
  -24.8765   32.3692  -18.0898 N   0  0  0  0  0  0  0  0  0  0  0  0
  -25.5955   31.3365  -18.6208 N   0  0  0  0  0  0  0  0  0  0  0  0
  -25.7727   30.1333  -17.9864 C   0  0  0  0  0  0  0  0  0  0  0  0
  -26.2808   31.1878  -19.8006 C   0  0  0  0  0  0  0  0  0  0  0  0
  -26.5027   29.3228  -18.7174 N   0  0  0  0  0  0  0  0  0  0  0  0
  -26.8260   29.9929  -19.8710 N   0  0  0  0  0  0  0  0  0  0  0  0
  -27.4946   36.7254  -14.9368 H   0  0  0  0  0  0  0  0  0  0  0  0
  -28.7582   36.3327  -16.1084 H   0  0  0  0  0  0  0  0  0  0  0  0
  -27.5247   37.5138  -16.5638 H   0  0  0  0  0  0  0  0  0  0  0  0
  -25.3975   37.5549  -15.5123 H   0  0  0  0  0  0  0  0  0  0  0  0
  -22.8582   33.7937  -17.5195 H   0  0  0  0  0  0  0  0  0  0  0  0
  -26.6304   33.4774  -17.7163 H   0  0  0  0  0  0  0  0  0  0  0  0
  -22.9571   37.5963  -15.5432 H   0  0  0  0  0  0  0  0  0  0  0  0
  -21.6715   35.7259  -16.5418 H   0  0  0  0  0  0  0  0  0  0  0  0
  -25.3500   29.9239  -17.0162 H   0  0  0  0  0  0  0  0  0  0  0  0
  -26.3584   31.9478  -20.5608 H   0  0  0  0  0  0  0  0  0  0  0  0
  1  2  1  0  0  0  0
  1  3  1  0  0  0  0
  2  4  2  0  0  0  0
  2  5  1  0  0  0  0
  3 16  1  0  0  0  0
  3 17  1  0  0  0  0
  3 18  1  0  0  0  0
  4  6  1  0  0  0  0
  4  7  1  0  0  0  0
  5  8  2  0  0  0  0
  5 19  1  0  0  0  0
  6  9  2  0  0  0  0
  6 20  1  0  0  0  0
  7 10  2  0  0  0  0
  7 21  1  0  0  0  0
  8  9  1  0  0  0  0
  8 22  1  0  0  0  0
  9 23  1  0  0  0  0
 10 11  1  0  0  0  0
 11 12  1  0  0  0  0
 11 13  1  0  0  0  0
 12 14  2  0  0  0  0
 12 24  1  0  0  0  0
 13 15  2  0  0  0  0
 13 25  1  0  0  0  0
 14 15  1  0  0  0  0
M  END
>  <Column 1>
COc1ccccc1/C=N/n1cnnc1 ZINC000000028582

>  <Total Molweight>
202.216

>  <cLogP>
1.1583

>  <cLogS>
-4.328

>  <H-Acceptors>
5

>  <H-Donors>
0

>  <Total Surface Area>
166.76

>  <MMFF94 Energy>
55.22

> <Gold.Version>
5.8.1

> <Gold.Id.Protein>
ID|2FQT|mol2

> <Gold.PLP.Fitness>
49.9539

> <Gold.PLP.PLP>
-31.7638

> <Gold.PLP.part.hbond>
-1.2273

> <Gold.PLP.part.metal>
-2.0000

> <Gold.PLP.part.buried>
0.2121

> <Gold.PLP.part.nonpolar>
-28.2625

> <Gold.PLP.part.repulsive>
0.2115

> <Gold.PLP.ligand.clash>
0.0000

> <Gold.PLP.ligand.torsion>
0.6894

> <Gold.PLP.Chemscore.Hbond>
1.0000

> <Gold.PLP.Chemscore.CHOScore>
1.5497

> <Gold.PLP.Chemscore.Metal>
1.9865

> <Gold.Chemscore.Hbonds>
donor molecule, donor type, donor heavy atom, donor atom, acceptor molecule, acceptor atom, score
      P1  H   966  2177       L1    15  1.00
      L1  C    12    24       P1   426  0.56
      L1  C    13    25       P1   954  0.99
      P1  M  1222  1222       L1    14  1.00
      P1  M  1222  1222       L1    15  0.99

> <Gold.PLP.Chemscore.Internal.Correction>
0.0005

> <Gold.Protein.RotatedTorsions>
[ 1849  621  620  617 ] final   23.29 input   60.00 | X-H torsion

> <Gold.Protein.ActiveResidues>
 HIS54   GLU57   HIS58   ALA61   PHE62   ILE76   ILE77   ASP78   ILE79   SER80  
 PRO81   GLN125  CYS126  GLY127  GLN128  HIS132  CO701  

> <Gold.Protein.RotatedAtoms>
  -19.0603   28.8447  -12.9849 H   0  0  0  0  0  0  0  0  0  0  0  0  # atno 1849 bound_to 621 
  -19.5264   27.6590  -13.9973 LP  0  0  0  0  0  0  0  0  0  0  0  0  # atno 2431 bound_to 621 
  -17.9938   27.7012  -13.4352 LP  0  0  0  0  0  0  0  0  0  0  0  0  # atno 2432 bound_to 621 

$$$$
Compound 141|DecoysActives|sdf|148|dock2
  -GOLD-   6112412153D 1   1.00000     0.00000

 21 22  0  0  0  0  0  0  0  0  1 V2000
  -24.1743   35.3779  -16.7706 S   0  0  0  0  0  0  0  0  0  0  0  0
  -25.8012   34.8527  -16.7327 C   0  0  0  0  0  0  0  0  0  0  0  0
  -24.5523   36.8533  -15.9927 C   0  0  0  0  0  0  0  0  0  0  0  0
  -26.6191   35.7915  -16.1347 C   0  0  0  0  0  0  0  0  0  0  0  0
  -26.1958   33.5714  -17.2792 C   0  0  0  0  0  0  0  0  0  0  0  0
  -25.8983   36.9455  -15.7079 C   0  0  0  0  0  0  0  0  0  0  0  0
  -23.4727   37.8408  -15.7102 C   0  0  0  0  0  0  0  0  0  0  0  0
  -25.3537   32.7909  -17.8717 N   0  0  0  0  0  0  0  0  0  0  0  0
  -25.8160   31.6038  -18.3547 N   0  0  0  0  0  0  0  0  0  0  0  0
  -26.3814   31.4615  -19.5964 C   0  0  0  0  0  0  0  0  0  0  0  0
  -25.8605   30.3372  -17.8277 C   0  0  0  0  0  0  0  0  0  0  0  0
  -26.7385   30.2152  -19.8055 N   0  0  0  0  0  0  0  0  0  0  0  0
  -26.4076   29.5005  -18.6816 N   0  0  0  0  0  0  0  0  0  0  0  0
  -27.6875   35.6653  -16.0046 H   0  0  0  0  0  0  0  0  0  0  0  0
  -27.2633   33.3242  -17.1469 H   0  0  0  0  0  0  0  0  0  0  0  0
  -26.3477   37.8004  -15.2161 H   0  0  0  0  0  0  0  0  0  0  0  0
  -23.8757   38.7282  -15.2110 H   0  0  0  0  0  0  0  0  0  0  0  0
  -22.9928   38.1679  -16.6385 H   0  0  0  0  0  0  0  0  0  0  0  0
  -22.7100   37.4060  -15.0558 H   0  0  0  0  0  0  0  0  0  0  0  0
  -26.4973   32.2901  -20.2780 H   0  0  0  0  0  0  0  0  0  0  0  0
  -25.4973   30.0667  -16.8497 H   0  0  0  0  0  0  0  0  0  0  0  0
  1  2  1  0  0  0  0
  1  3  1  0  0  0  0
  2  4  2  0  0  0  0
  2  5  1  0  0  0  0
  3  6  2  0  0  0  0
  3  7  1  0  0  0  0
  4  6  1  0  0  0  0
  4 14  1  0  0  0  0
  5  8  2  0  0  0  0
  5 15  1  0  0  0  0
  6 16  1  0  0  0  0
  7 17  1  0  0  0  0
  7 18  1  0  0  0  0
  7 19  1  0  0  0  0
  8  9  1  0  0  0  0
  9 10  1  0  0  0  0
  9 11  1  0  0  0  0
 10 12  2  0  0  0  0
 10 20  1  0  0  0  0
 11 13  2  0  0  0  0
 11 21  1  0  0  0  0
 12 13  1  0  0  0  0
M  END
>  <Column 1>
Cc1ccc(/C=N/n2cnnc2)s1 ZINC000000028584

>  <Total Molweight>
192.246

>  <cLogP>
1.521

>  <cLogS>
-4.774

>  <H-Acceptors>
4

>  <H-Donors>
0

>  <Total Surface Area>
152.7

>  <MMFF94 Energy>
27.716

> <Gold.Version>
5.8.1

> <Gold.Id.Protein>
ID|2FQT|mol2

> <Gold.PLP.Fitness>
48.3649

> <Gold.PLP.PLP>
-30.4150

> <Gold.PLP.part.hbond>
-0.7393

> <Gold.PLP.part.metal>
-2.0000

> <Gold.PLP.part.buried>
0.3745

> <Gold.PLP.part.nonpolar>
-27.2128

> <Gold.PLP.part.repulsive>
0.1129

> <Gold.PLP.ligand.clash>
0.0000

> <Gold.PLP.ligand.torsion>
0.7488

> <Gold.PLP.Chemscore.Hbond>
0.6663

> <Gold.PLP.Chemscore.CHOScore>
1.8776

> <Gold.PLP.Chemscore.Metal>
1.9693

> <Gold.Chemscore.Hbonds>
donor molecule, donor type, donor heavy atom, donor atom, acceptor molecule, acceptor atom, score
      P1  H   966  2177       L1    12  0.67
      L1  C    10    20       P1   954  1.00
      L1  C    11    21       P1   426  0.88
      P1  M  1222  1222       L1    12  0.97
      P1  M  1222  1222       L1    13  1.00

> <Gold.PLP.Chemscore.Internal.Correction>
0.0000

> <Gold.Protein.RotatedTorsions>
[ 1849  621  620  617 ] final  -61.74 input   60.00 | X-H torsion

> <Gold.Protein.ActiveResidues>
 HIS54   GLU57   HIS58   ALA61   PHE62   ILE76   ILE77   ASP78   ILE79   SER80  
 PRO81   GLN125  CYS126  GLY127  GLN128  HIS132  CO701  

> <Gold.Protein.RotatedAtoms>
  -19.7537   28.1123  -13.7492 H   0  0  0  0  0  0  0  0  0  0  0  0  # atno 1849 bound_to 621 
  -18.3041   27.3733  -13.7773 LP  0  0  0  0  0  0  0  0  0  0  0  0  # atno 2431 bound_to 621 
  -18.5178   28.7245  -12.8855 LP  0  0  0  0  0  0  0  0  0  0  0  0  # atno 2432 bound_to 621 

$$$$
Compound 142|DecoysActives|sdf|149|dock3
  -GOLD-   6112412153D 1   1.00000     0.00000

 31 31  0  0  0  0  0  0  0  0  1 V2000
  -26.5667   28.6995  -18.9340 S   0  0  0  0  0  0  0  0  0  0  0  0
  -27.4311   27.6476  -18.4400 O   0  0  0  0  0  0  0  0  0  0  0  0
  -26.9980   29.5889  -19.9903 O   0  0  0  0  0  0  0  0  0  0  0  0
  -26.1220   29.6186  -17.5722 N   0  0  0  0  0  0  0  0  0  0  0  0
  -25.0011   27.9813  -19.3750 C   0  0  0  0  0  0  0  0  0  0  0  0
  -26.3398   31.0817  -17.6092 N   0  0  0  0  0  0  0  0  0  0  0  0
  -25.3734   31.7725  -17.0952 C   0  0  0  0  0  0  0  0  0  0  0  0
  -25.4154   33.2461  -17.0304 C   0  0  0  0  0  0  0  0  0  0  0  0
  -25.5574   33.9687  -18.2191 C   0  0  0  0  0  0  0  0  0  0  0  0
  -25.3132   33.9095  -15.8074 C   0  0  0  0  0  0  0  0  0  0  0  0
  -25.6000   35.3674  -18.1846 C   0  0  0  0  0  0  0  0  0  0  0  0
  -25.3546   35.3048  -15.7675 C   0  0  0  0  0  0  0  0  0  0  0  0
  -25.7390   36.1657  -19.2933 O   0  0  0  0  0  0  0  0  0  0  0  0
  -25.4978   36.0417  -16.9484 C   0  0  0  0  0  0  0  0  0  0  0  0
  -25.7064   35.5455  -20.5701 C   0  0  0  0  0  0  0  0  0  0  0  0
  -25.5494   37.4124  -17.0047 O   0  0  0  0  0  0  0  0  0  0  0  0
  -25.0248   38.1388  -15.9026 C   0  0  0  0  0  0  0  0  0  0  0  0
  -26.3067   29.0991  -16.7098 H   0  0  0  0  0  0  0  0  0  0  0  0
  -24.3079   28.7786  -19.6495 H   0  0  0  0  0  0  0  0  0  0  0  0
  -24.6235   27.4055  -18.5282 H   0  0  0  0  0  0  0  0  0  0  0  0
  -25.1633   27.3212  -20.2296 H   0  0  0  0  0  0  0  0  0  0  0  0
  -24.4742   31.2778  -16.6877 H   0  0  0  0  0  0  0  0  0  0  0  0
  -25.6351   33.4296  -19.1564 H   0  0  0  0  0  0  0  0  0  0  0  0
  -25.1971   33.3513  -14.8806 H   0  0  0  0  0  0  0  0  0  0  0  0
  -25.2714   35.7854  -14.7982 H   0  0  0  0  0  0  0  0  0  0  0  0
  -24.7452   35.0514  -20.7449 H   0  0  0  0  0  0  0  0  0  0  0  0
  -25.8198   36.3286  -21.3259 H   0  0  0  0  0  0  0  0  0  0  0  0
  -26.5394   34.8452  -20.6896 H   0  0  0  0  0  0  0  0  0  0  0  0
  -25.5864   37.9269  -14.9869 H   0  0  0  0  0  0  0  0  0  0  0  0
  -25.1368   39.2052  -16.1211 H   0  0  0  0  0  0  0  0  0  0  0  0
  -23.9569   37.9377  -15.7688 H   0  0  0  0  0  0  0  0  0  0  0  0
  1  2  2  0  0  0  0
  1  3  2  0  0  0  0
  1  4  1  0  0  0  0
  1  5  1  0  0  0  0
  4  6  1  0  0  0  0
  4 18  1  0  0  0  0
  5 19  1  0  0  0  0
  5 20  1  0  0  0  0
  5 21  1  0  0  0  0
  6  7  2  0  0  0  0
  7  8  1  0  0  0  0
  7 22  1  0  0  0  0
  8  9  2  0  0  0  0
  8 10  1  0  0  0  0
  9 11  1  0  0  0  0
  9 23  1  0  0  0  0
 10 12  2  0  0  0  0
 10 24  1  0  0  0  0
 11 13  1  0  0  0  0
 11 14  2  0  0  0  0
 12 14  1  0  0  0  0
 12 25  1  0  0  0  0
 13 15  1  0  0  0  0
 14 16  1  0  0  0  0
 15 26  1  0  0  0  0
 15 27  1  0  0  0  0
 15 28  1  0  0  0  0
 16 17  1  0  0  0  0
 17 29  1  0  0  0  0
 17 30  1  0  0  0  0
 17 31  1  0  0  0  0
M  END
>  <Column 1>
COc1ccc(/C=N/NS(C)(=O)=O)cc1OC ZINC000000029079

>  <Total Molweight>
258.297

>  <cLogP>
0.8867

>  <cLogS>
-1.706

>  <H-Acceptors>
6

>  <H-Donors>
1

>  <Total Surface Area>
194.84

>  <MMFF94 Energy>
62.001

> <Gold.Version>
5.8.1

> <Gold.Id.Protein>
ID|2FQT|mol2

> <Gold.PLP.Fitness>
54.7191

> <Gold.PLP.PLP>
-28.7601

> <Gold.PLP.part.hbond>
-2.0000

> <Gold.PLP.part.metal>
-3.4190

> <Gold.PLP.part.buried>
1.7177

> <Gold.PLP.part.nonpolar>
-26.5623

> <Gold.PLP.part.repulsive>
0.2053

> <Gold.PLP.ligand.clash>
0.0000

> <Gold.PLP.ligand.torsion>
1.0348

> <Gold.PLP.Chemscore.Hbond>
1.9913

> <Gold.PLP.Chemscore.CHOScore>
0.0000

> <Gold.PLP.Chemscore.Metal>
3.6621

> <Gold.Chemscore.Hbonds>
donor molecule, donor type, donor heavy atom, donor atom, acceptor molecule, acceptor atom, score
      L1  H     4    18       P1   426  0.99
      P1  H   966  2177       L1     3  1.00
      P1  M  1222  1222       L1     2  0.94
      P1  M  1222  1222       L1     3  0.99
      P1  M  1222  1222       L1     4  0.90
      P1  M  1222  1222       L1     6  0.84

> <Gold.PLP.Chemscore.Internal.Correction>
0.0823

> <Gold.Protein.RotatedTorsions>
[ 1849  621  620  617 ] final   44.65 input   60.00 | X-H torsion

> <Gold.Protein.ActiveResidues>
 HIS54   GLU57   HIS58   ALA61   PHE62   ILE76   ILE77   ASP78   ILE79   SER80  
 PRO81   GLN125  CYS126  GLY127  GLN128  HIS132  CO701  

> <Gold.Protein.RotatedAtoms>
  -18.7267   28.8003  -12.9009 H   0  0  0  0  0  0  0  0  0  0  0  0  # atno 1849 bound_to 621 
  -19.7051   27.9291  -13.8663 LP  0  0  0  0  0  0  0  0  0  0  0  0  # atno 2431 bound_to 621 
  -18.1511   27.4758  -13.6509 LP  0  0  0  0  0  0  0  0  0  0  0  0  # atno 2432 bound_to 621 

$$$$
Compound 143|DecoysActives|sdf|150|dock4
  -GOLD-   6112412153D 1   1.00000     0.00000

 27 27  0  0  0  0  0  0  0  0  1 V2000
  -26.0506   30.1999  -18.8990 S   0  0  0  0  0  0  0  0  0  0  0  0
  -27.0476   30.4351  -19.9225 O   0  0  0  0  0  0  0  0  0  0  0  0
  -26.2301   29.1597  -17.9081 O   0  0  0  0  0  0  0  0  0  0  0  0
  -24.5495   29.9572  -19.6636 N   0  0  0  0  0  0  0  0  0  0  0  0
  -25.8161   31.7343  -18.0241 C   0  0  0  0  0  0  0  0  0  0  0  0
  -23.6919   28.8886  -19.1247 C   0  0  0  0  0  0  0  0  0  0  0  0
  -24.5303   30.0313  -21.1342 C   0  0  0  0  0  0  0  0  0  0  0  0
  -25.2991   31.7200  -16.7275 C   0  0  0  0  0  0  0  0  0  0  0  0
  -26.2099   32.9376  -18.6165 C   0  0  0  0  0  0  0  0  0  0  0  0
  -25.1396   32.9254  -16.0418 C   0  0  0  0  0  0  0  0  0  0  0  0
  -26.0485   34.1403  -17.9206 C   0  0  0  0  0  0  0  0  0  0  0  0
  -25.5093   34.1389  -16.6320 C   0  0  0  0  0  0  0  0  0  0  0  0
  -25.2975   35.2395  -15.8486 O   0  0  0  0  0  0  0  0  0  0  0  0
  -26.1769   36.3418  -16.0337 C   0  0  0  0  0  0  0  0  0  0  0  0
  -23.6534   28.9233  -18.0326 H   0  0  0  0  0  0  0  0  0  0  0  0
  -24.0406   27.9035  -19.4468 H   0  0  0  0  0  0  0  0  0  0  0  0
  -22.6660   29.0259  -19.4819 H   0  0  0  0  0  0  0  0  0  0  0  0
  -25.1055   30.8875  -21.4965 H   0  0  0  0  0  0  0  0  0  0  0  0
  -24.9218   29.1129  -21.5802 H   0  0  0  0  0  0  0  0  0  0  0  0
  -23.5012   30.1725  -21.4806 H   0  0  0  0  0  0  0  0  0  0  0  0
  -25.0255   30.7849  -16.2448 H   0  0  0  0  0  0  0  0  0  0  0  0
  -26.6473   32.9480  -19.6127 H   0  0  0  0  0  0  0  0  0  0  0  0
  -24.7335   32.9213  -15.0325 H   0  0  0  0  0  0  0  0  0  0  0  0
  -26.3602   35.0580  -18.4089 H   0  0  0  0  0  0  0  0  0  0  0  0
  -26.0807   36.7574  -17.0419 H   0  0  0  0  0  0  0  0  0  0  0  0
  -25.8888   37.1224  -15.3230 H   0  0  0  0  0  0  0  0  0  0  0  0
  -27.2134   36.0613  -15.8181 H   0  0  0  0  0  0  0  0  0  0  0  0
  1  2  2  0  0  0  0
  1  3  2  0  0  0  0
  1  4  1  0  0  0  0
  1  5  1  0  0  0  0
  4  6  1  0  0  0  0
  4  7  1  0  0  0  0
  5  8  2  0  0  0  0
  5  9  1  0  0  0  0
  6 15  1  0  0  0  0
  6 16  1  0  0  0  0
  6 17  1  0  0  0  0
  7 18  1  0  0  0  0
  7 19  1  0  0  0  0
  7 20  1  0  0  0  0
  8 10  1  0  0  0  0
  8 21  1  0  0  0  0
  9 11  2  0  0  0  0
  9 22  1  0  0  0  0
 10 12  2  0  0  0  0
 10 23  1  0  0  0  0
 11 12  1  0  0  0  0
 11 24  1  0  0  0  0
 12 13  1  0  0  0  0
 13 14  1  0  0  0  0
 14 25  1  0  0  0  0
 14 26  1  0  0  0  0
 14 27  1  0  0  0  0
M  END
>  <Column 1>
COc1ccc(S(=O)(=O)N(C)C)cc1 ZINC000000029190

>  <Total Molweight>
215.272

>  <cLogP>
0.8082

>  <cLogS>
-0.773

>  <H-Acceptors>
4

>  <H-Donors>
0

>  <Total Surface Area>
158.92

>  <MMFF94 Energy>
-16.669

> <Gold.Version>
5.8.1

> <Gold.Id.Protein>
ID|2FQT|mol2

> <Gold.PLP.Fitness>
40.6785

> <Gold.PLP.PLP>
-26.6916

> <Gold.PLP.part.hbond>
-1.0000

> <Gold.PLP.part.metal>
-2.0000

> <Gold.PLP.part.buried>
-0.0562

> <Gold.PLP.part.nonpolar>
-23.9576

> <Gold.PLP.part.repulsive>
0.2860

> <Gold.PLP.ligand.clash>
0.0000

> <Gold.PLP.ligand.torsion>
1.6896

> <Gold.PLP.Chemscore.Hbond>
0.9833

> <Gold.PLP.Chemscore.CHOScore>
0.0000

> <Gold.PLP.Chemscore.Metal>
1.9680

> <Gold.Chemscore.Hbonds>
donor molecule, donor type, donor heavy atom, donor atom, acceptor molecule, acceptor atom, score
      P1  H   966  2177       L1     2  0.98
      P1  M  1222  1222       L1     2  1.00
      P1  M  1222  1222       L1     3  0.97

> <Gold.PLP.Chemscore.Internal.Correction>
2.6084

> <Gold.Protein.RotatedTorsions>
[ 1849  621  620  617 ] final  -62.36 input   60.00 | X-H torsion

> <Gold.Protein.ActiveResidues>
 HIS54   GLU57   HIS58   ALA61   PHE62   ILE76   ILE77   ASP78   ILE79   SER80  
 PRO81   GLN125  CYS126  GLY127  GLN128  HIS132  CO701  

> <Gold.Protein.RotatedAtoms>
  -19.7523   28.1039  -13.7548 H   0  0  0  0  0  0  0  0  0  0  0  0  # atno 1849 bound_to 621 
  -18.2964   27.3772  -13.7719 LP  0  0  0  0  0  0  0  0  0  0  0  0  # atno 2431 bound_to 621 
  -18.5269   28.7291  -12.8854 LP  0  0  0  0  0  0  0  0  0  0  0  0  # atno 2432 bound_to 621 

$$$$
Compound 144|DecoysActives|sdf|151|dock9
  -GOLD-   6112412153D 1   1.00000     0.00000

 29 29  0  0  0  0  0  0  0  0  1 V2000
  -25.0400   31.5550  -17.2219 S   0  0  0  0  0  0  0  0  0  0  0  0
  -26.2652   30.7927  -17.3104 O   0  0  0  0  0  0  0  0  0  0  0  0
  -23.9739   31.1583  -16.3281 O   0  0  0  0  0  0  0  0  0  0  0  0
  -24.3539   31.6167  -18.7820 N   0  0  0  0  0  0  0  0  0  0  0  0
  -25.5004   33.2288  -16.8860 C   0  0  0  0  0  0  0  0  0  0  0  0
  -25.3199   31.7846  -19.9085 C   0  0  0  0  0  0  0  0  0  0  0  0
  -23.2100   32.5752  -18.8609 C   0  0  0  0  0  0  0  0  0  0  0  0
  -25.0924   33.8476  -15.7049 C   0  0  0  0  0  0  0  0  0  0  0  0
  -26.3063   33.9067  -17.8057 C   0  0  0  0  0  0  0  0  0  0  0  0
  -26.3129   30.7063  -20.0603 C   0  0  0  0  0  0  0  0  0  0  0  0
  -22.4011   32.3561  -20.0765 C   0  0  0  0  0  0  0  0  0  0  0  0
  -25.4842   35.1646  -15.4571 C   0  0  0  0  0  0  0  0  0  0  0  0
  -26.6931   35.2253  -17.5472 C   0  0  0  0  0  0  0  0  0  0  0  0
  -27.0694   29.8357  -20.1887 N   0  0  0  0  0  0  0  0  0  0  0  0
  -21.7291   32.1912  -21.0091 N   0  0  0  0  0  0  0  0  0  0  0  0
  -26.2813   35.8604  -16.3731 C   0  0  0  0  0  0  0  0  0  0  0  0
  -26.5916   37.1392  -16.0002 O   0  0  0  0  0  0  0  0  0  0  0  0
  -27.3980   37.8933  -16.8962 C   0  0  0  0  0  0  0  0  0  0  0  0
  -24.7470   31.8144  -20.8445 H   0  0  0  0  0  0  0  0  0  0  0  0
  -25.8172   32.7580  -19.8282 H   0  0  0  0  0  0  0  0  0  0  0  0
  -22.5869   32.5170  -17.9610 H   0  0  0  0  0  0  0  0  0  0  0  0
  -23.5835   33.6059  -18.8840 H   0  0  0  0  0  0  0  0  0  0  0  0
  -24.4739   33.3272  -14.9779 H   0  0  0  0  0  0  0  0  0  0  0  0
  -26.6441   33.4166  -18.7166 H   0  0  0  0  0  0  0  0  0  0  0  0
  -25.1634   35.6586  -14.5426 H   0  0  0  0  0  0  0  0  0  0  0  0
  -27.3198   35.7261  -18.2782 H   0  0  0  0  0  0  0  0  0  0  0  0
  -26.9088   38.0068  -17.8693 H   0  0  0  0  0  0  0  0  0  0  0  0
  -27.5268   38.8928  -16.4698 H   0  0  0  0  0  0  0  0  0  0  0  0
  -28.3920   37.4464  -17.0023 H   0  0  0  0  0  0  0  0  0  0  0  0
  1  2  2  0  0  0  0
  1  3  2  0  0  0  0
  1  4  1  0  0  0  0
  1  5  1  0  0  0  0
  4  6  1  0  0  0  0
  4  7  1  0  0  0  0
  5  8  2  0  0  0  0
  5  9  1  0  0  0  0
  6 10  1  0  0  0  0
  6 19  1  0  0  0  0
  6 20  1  0  0  0  0
  7 11  1  0  0  0  0
  7 21  1  0  0  0  0
  7 22  1  0  0  0  0
  8 12  1  0  0  0  0
  8 23  1  0  0  0  0
  9 13  2  0  0  0  0
  9 24  1  0  0  0  0
 10 14  3  0  0  0  0
 11 15  3  0  0  0  0
 12 16  2  0  0  0  0
 12 25  1  0  0  0  0
 13 16  1  0  0  0  0
 13 26  1  0  0  0  0
 16 17  1  0  0  0  0
 17 18  1  0  0  0  0
 18 27  1  0  0  0  0
 18 28  1  0  0  0  0
 18 29  1  0  0  0  0
M  END
>  <Column 1>
COc1ccc(S(=O)(=O)N(CC#N)CC#N)cc1 ZINC000000029431

>  <Total Molweight>
265.292

>  <cLogP>
0.112

>  <cLogS>
-1.669

>  <H-Acceptors>
6

>  <H-Donors>
0

>  <Total Surface Area>
205.34

>  <MMFF94 Energy>
-23.983

> <Gold.Version>
5.8.1

> <Gold.Id.Protein>
ID|2FQT|mol2

> <Gold.PLP.Fitness>
46.8134

> <Gold.PLP.PLP>
-34.2351

> <Gold.PLP.part.hbond>
-0.8744

> <Gold.PLP.part.metal>
-1.4580

> <Gold.PLP.part.buried>
-0.2466

> <Gold.PLP.part.nonpolar>
-32.0441

> <Gold.PLP.part.repulsive>
0.4435

> <Gold.PLP.ligand.clash>
0.0000

> <Gold.PLP.ligand.torsion>
1.5275

> <Gold.PLP.Chemscore.Hbond>
1.0000

> <Gold.PLP.Chemscore.CHOScore>
0.0000

> <Gold.PLP.Chemscore.Metal>
1.7116

> <Gold.Chemscore.Hbonds>
donor molecule, donor type, donor heavy atom, donor atom, acceptor molecule, acceptor atom, score
      P1  H   966  2177       L1    14  1.00
      P1  M  1222  1222       L1     2  0.77
      P1  M  1222  1222       L1    14  0.94

> <Gold.PLP.Chemscore.Internal.Correction>
2.3639

> <Gold.Protein.RotatedTorsions>
[ 1849  621  620  617 ] final  -70.94 input   60.00 | X-H torsion

> <Gold.Protein.ActiveResidues>
 HIS54   GLU57   HIS58   ALA61   PHE62   ILE76   ILE77   ASP78   ILE79   SER80  
 PRO81   GLN125  CYS126  GLY127  GLN128  HIS132  CO701  

> <Gold.Protein.RotatedAtoms>
  -19.7226   27.9879  -13.8274 H   0  0  0  0  0  0  0  0  0  0  0  0  # atno 1849 bound_to 621 
  -18.1967   27.4386  -13.6934 LP  0  0  0  0  0  0  0  0  0  0  0  0  # atno 2431 bound_to 621 
  -18.6565   28.7844  -12.8908 LP  0  0  0  0  0  0  0  0  0  0  0  0  # atno 2432 bound_to 621 

$$$$
Compound 145|DecoysActives|sdf|152|dock2
  -GOLD-   6112412153D 1   1.00000     0.00000

 25 25  0  0  0  0  0  0  0  0  1 V2000
  -25.3406   31.6276  -18.1797 S   0  0  0  0  0  0  0  0  0  0  0  0
  -26.5887   30.9532  -18.4456 O   0  0  0  0  0  0  0  0  0  0  0  0
  -24.3013   31.0139  -17.3818 O   0  0  0  0  0  0  0  0  0  0  0  0
  -24.6192   32.0261  -19.6638 N   0  0  0  0  0  0  0  0  0  0  0  0
  -25.7271   33.2176  -17.4959 C   0  0  0  0  0  0  0  0  0  0  0  0
  -23.2197   31.5335  -19.8113 C   0  0  0  0  0  0  0  0  0  0  0  0
  -25.4917   31.7018  -20.8348 C   0  0  0  0  0  0  0  0  0  0  0  0
  -26.4990   34.1280  -18.2261 C   0  0  0  0  0  0  0  0  0  0  0  0
  -25.2460   33.5391  -16.2203 C   0  0  0  0  0  0  0  0  0  0  0  0
  -22.5888   31.9954  -21.0636 C   0  0  0  0  0  0  0  0  0  0  0  0
  -25.7231   30.2485  -20.9613 C   0  0  0  0  0  0  0  0  0  0  0  0
  -26.7996   35.3697  -17.6648 C   0  0  0  0  0  0  0  0  0  0  0  0
  -25.5528   34.7828  -15.6682 C   0  0  0  0  0  0  0  0  0  0  0  0
  -22.0935   32.3300  -22.0583 N   0  0  0  0  0  0  0  0  0  0  0  0
  -25.9133   29.1053  -21.0350 N   0  0  0  0  0  0  0  0  0  0  0  0
  -26.3264   35.6849  -16.3934 C   0  0  0  0  0  0  0  0  0  0  0  0
  -26.6195   36.8776  -15.8606 F   0  0  0  0  0  0  0  0  0  0  0  0
  -22.6005   31.8914  -18.9820 H   0  0  0  0  0  0  0  0  0  0  0  0
  -23.2116   30.4377  -19.7759 H   0  0  0  0  0  0  0  0  0  0  0  0
  -26.4645   32.1965  -20.7317 H   0  0  0  0  0  0  0  0  0  0  0  0
  -25.0586   32.1035  -21.7586 H   0  0  0  0  0  0  0  0  0  0  0  0
  -26.8603   33.8869  -19.2234 H   0  0  0  0  0  0  0  0  0  0  0  0
  -24.6320   32.8348  -15.6613 H   0  0  0  0  0  0  0  0  0  0  0  0
  -27.3940   36.0975  -18.2094 H   0  0  0  0  0  0  0  0  0  0  0  0
  -25.1908   35.0575  -14.6816 H   0  0  0  0  0  0  0  0  0  0  0  0
  1  2  2  0  0  0  0
  1  3  2  0  0  0  0
  1  4  1  0  0  0  0
  1  5  1  0  0  0  0
  4  6  1  0  0  0  0
  4  7  1  0  0  0  0
  5  8  2  0  0  0  0
  5  9  1  0  0  0  0
  6 10  1  0  0  0  0
  6 18  1  0  0  0  0
  6 19  1  0  0  0  0
  7 11  1  0  0  0  0
  7 20  1  0  0  0  0
  7 21  1  0  0  0  0
  8 12  1  0  0  0  0
  8 22  1  0  0  0  0
  9 13  2  0  0  0  0
  9 23  1  0  0  0  0
 10 14  3  0  0  0  0
 11 15  3  0  0  0  0
 12 16  2  0  0  0  0
 12 24  1  0  0  0  0
 13 16  1  0  0  0  0
 13 25  1  0  0  0  0
 16 17  1  0  0  0  0
M  END
>  <Column 1>
N#CCN(CC#N)S(=O)(=O)c1ccc(F)cc1 ZINC000000029471

>  <Total Molweight>
253.257

>  <cLogP>
0.2828

>  <cLogS>
-1.965

>  <H-Acceptors>
5

>  <H-Donors>
0

>  <Total Surface Area>
189.43

>  <MMFF94 Energy>
-31.215

> <Gold.Version>
5.8.1

> <Gold.Id.Protein>
ID|2FQT|mol2

> <Gold.PLP.Fitness>
41.1347

> <Gold.PLP.PLP>
-34.9086

> <Gold.PLP.part.hbond>
-1.0000

> <Gold.PLP.part.metal>
-1.0000

> <Gold.PLP.part.buried>
-4.2653

> <Gold.PLP.part.nonpolar>
-29.4284

> <Gold.PLP.part.repulsive>
0.2125

> <Gold.PLP.ligand.clash>
0.0000

> <Gold.PLP.ligand.torsion>
1.3550

> <Gold.PLP.Chemscore.Hbond>
0.1934

> <Gold.PLP.Chemscore.CHOScore>
0.0000

> <Gold.PLP.Chemscore.Metal>
1.0000

> <Gold.Chemscore.Hbonds>
donor molecule, donor type, donor heavy atom, donor atom, acceptor molecule, acceptor atom, score
      P1  H   966  2177       L1    15  0.19
      P1  M  1222  1222       L1     2  1.00

> <Gold.PLP.Chemscore.Internal.Correction>
2.3557

> <Gold.Protein.RotatedTorsions>
[ 1849  621  620  617 ] final -163.59 input   60.00 | X-H torsion

> <Gold.Protein.ActiveResidues>
 HIS54   GLU57   HIS58   ALA61   PHE62   ILE76   ILE77   ASP78   ILE79   SER80  
 PRO81   GLN125  CYS126  GLY127  GLN128  HIS132  CO701  

> <Gold.Protein.RotatedAtoms>
  -18.5580   27.3023  -13.9133 H   0  0  0  0  0  0  0  0  0  0  0  0  # atno 1849 bound_to 621 
  -18.2731   28.5587  -12.9191 LP  0  0  0  0  0  0  0  0  0  0  0  0  # atno 2431 bound_to 621 
  -19.7530   28.3549  -13.5785 LP  0  0  0  0  0  0  0  0  0  0  0  0  # atno 2432 bound_to 621 

$$$$
Compound 146|DecoysActives|sdf|153|dock1
  -GOLD-   6112412153D 1   1.00000     0.00000

 28 28  0  0  0  0  0  0  0  0  1 V2000
  -25.9956   30.0358  -19.1193 S   0  0  0  0  0  0  0  0  0  0  0  0
  -26.2319   29.4866  -17.7989 O   0  0  0  0  0  0  0  0  0  0  0  0
  -27.0956   30.4793  -19.9465 O   0  0  0  0  0  0  0  0  0  0  0  0
  -24.8910   31.2889  -18.8748 N   0  0  0  0  0  0  0  0  0  0  0  0
  -25.0251   28.8471  -20.0199 C   0  0  0  0  0  0  0  0  0  0  0  0
  -25.3373   32.3967  -18.0840 C   0  0  0  0  0  0  0  0  0  0  0  0
  -24.8866   32.5750  -16.7658 C   0  0  0  0  0  0  0  0  0  0  0  0
  -26.1734   33.3441  -18.6806 C   0  0  0  0  0  0  0  0  0  0  0  0
  -24.0707   31.5945  -16.2605 O   0  0  0  0  0  0  0  0  0  0  0  0
  -25.3112   33.7038  -16.0572 C   0  0  0  0  0  0  0  0  0  0  0  0
  -26.5873   34.4680  -17.9621 C   0  0  0  0  0  0  0  0  0  0  0  0
  -23.3331   31.9036  -15.0846 C   0  0  0  0  0  0  0  0  0  0  0  0
  -26.1581   34.6508  -16.6485 C   0  0  0  0  0  0  0  0  0  0  0  0
  -26.4887   35.7014  -15.8357 O   0  0  0  0  0  0  0  0  0  0  0  0
  -27.4007   36.6593  -16.3594 C   0  0  0  0  0  0  0  0  0  0  0  0
  -23.9911   30.8939  -18.6014 H   0  0  0  0  0  0  0  0  0  0  0  0
  -24.8583   29.2066  -21.0348 H   0  0  0  0  0  0  0  0  0  0  0  0
  -24.0832   28.6822  -19.4936 H   0  0  0  0  0  0  0  0  0  0  0  0
  -25.5927   27.9142  -20.0561 H   0  0  0  0  0  0  0  0  0  0  0  0
  -26.4934   33.2257  -19.7122 H   0  0  0  0  0  0  0  0  0  0  0  0
  -24.9987   33.8834  -15.0334 H   0  0  0  0  0  0  0  0  0  0  0  0
  -27.2340   35.1824  -18.4602 H   0  0  0  0  0  0  0  0  0  0  0  0
  -22.6463   32.7389  -15.2569 H   0  0  0  0  0  0  0  0  0  0  0  0
  -22.7308   31.0265  -14.8290 H   0  0  0  0  0  0  0  0  0  0  0  0
  -24.0013   32.1048  -14.2408 H   0  0  0  0  0  0  0  0  0  0  0  0
  -26.9996   37.1357  -17.2602 H   0  0  0  0  0  0  0  0  0  0  0  0
  -27.5374   37.4384  -15.6034 H   0  0  0  0  0  0  0  0  0  0  0  0
  -28.3790   36.2069  -16.5522 H   0  0  0  0  0  0  0  0  0  0  0  0
  1  2  2  0  0  0  0
  1  3  2  0  0  0  0
  1  4  1  0  0  0  0
  1  5  1  0  0  0  0
  4  6  1  0  0  0  0
  4 16  1  0  0  0  0
  5 17  1  0  0  0  0
  5 18  1  0  0  0  0
  5 19  1  0  0  0  0
  6  7  2  0  0  0  0
  6  8  1  0  0  0  0
  7  9  1  0  0  0  0
  7 10  1  0  0  0  0
  8 11  2  0  0  0  0
  8 20  1  0  0  0  0
  9 12  1  0  0  0  0
 10 13  2  0  0  0  0
 10 21  1  0  0  0  0
 11 13  1  0  0  0  0
 11 22  1  0  0  0  0
 12 23  1  0  0  0  0
 12 24  1  0  0  0  0
 12 25  1  0  0  0  0
 13 14  1  0  0  0  0
 14 15  1  0  0  0  0
 15 26  1  0  0  0  0
 15 27  1  0  0  0  0
 15 28  1  0  0  0  0
M  END
>  <Column 1>
COc1ccc(NS(C)(=O)=O)c(OC)c1 ZINC000000029503

>  <Total Molweight>
231.271

>  <cLogP>
0.5683

>  <cLogS>
-2.739

>  <H-Acceptors>
5

>  <H-Donors>
1

>  <Total Surface Area>
170.08

>  <MMFF94 Energy>
-18.62

> <Gold.Version>
5.8.1

> <Gold.Id.Protein>
ID|2FQT|mol2

> <Gold.PLP.Fitness>
48.0451

> <Gold.PLP.PLP>
-34.0384

> <Gold.PLP.part.hbond>
-1.0000

> <Gold.PLP.part.metal>
-2.0000

> <Gold.PLP.part.buried>
-1.4239

> <Gold.PLP.part.nonpolar>
-30.4806

> <Gold.PLP.part.repulsive>
0.4689

> <Gold.PLP.ligand.clash>
0.0000

> <Gold.PLP.ligand.torsion>
0.4777

> <Gold.PLP.Chemscore.Hbond>
0.9600

> <Gold.PLP.Chemscore.CHOScore>
0.0000

> <Gold.PLP.Chemscore.Metal>
1.9937

> <Gold.Chemscore.Hbonds>
donor molecule, donor type, donor heavy atom, donor atom, acceptor molecule, acceptor atom, score
      P1  H   966  2177       L1     3  0.96
      P1  M  1222  1222       L1     2  1.00
      P1  M  1222  1222       L1     3  1.00

> <Gold.PLP.Chemscore.Internal.Correction>
0.1199

> <Gold.Protein.RotatedTorsions>
[ 1849  621  620  617 ] final   22.87 input   60.00 | X-H torsion

> <Gold.Protein.ActiveResidues>
 HIS54   GLU57   HIS58   ALA61   PHE62   ILE76   ILE77   ASP78   ILE79   SER80  
 PRO81   GLN125  CYS126  GLY127  GLN128  HIS132  CO701  

> <Gold.Protein.RotatedAtoms>
  -19.0668   28.8445  -12.9873 H   0  0  0  0  0  0  0  0  0  0  0  0  # atno 1849 bound_to 621 
  -19.5218   27.6542  -13.9993 LP  0  0  0  0  0  0  0  0  0  0  0  0  # atno 2431 bound_to 621 
  -17.9918   27.7062  -13.4309 LP  0  0  0  0  0  0  0  0  0  0  0  0  # atno 2432 bound_to 621 

$$$$
Compound 147|DecoysActives|sdf|154|dock1
  -GOLD-   6112412153D 1   1.00000     0.00000

 32 33  0  0  0  0  0  0  0  0  1 V2000
  -25.9014   28.4470  -19.5637 S   0  0  0  0  0  0  0  0  0  0  0  0
  -27.3473   28.5046  -19.5573 O   0  0  0  0  0  0  0  0  0  0  0  0
  -25.1692   28.0371  -20.7423 O   0  0  0  0  0  0  0  0  0  0  0  0
  -25.3238   29.9550  -19.0965 N   0  0  0  0  0  0  0  0  0  0  0  0
  -25.3969   27.3956  -18.2150 C   0  0  0  0  0  0  0  0  0  0  0  0
  -25.5834   31.1265  -19.9776 C   0  0  0  0  0  0  0  0  0  0  0  0
  -25.2784   30.2559  -17.6399 C   0  0  0  0  0  0  0  0  0  0  0  0
  -26.4227   32.2144  -19.2814 C   0  0  0  0  0  0  0  0  0  0  0  0
  -24.8817   31.7179  -17.3620 C   0  0  0  0  0  0  0  0  0  0  0  0
  -25.8133   32.6539  -18.0153 N   0  0  0  0  0  0  0  0  0  0  0  0
  -26.0583   33.9163  -17.5005 C   0  0  0  0  0  0  0  0  0  0  0  0
  -25.6085   34.2962  -16.2228 C   0  0  0  0  0  0  0  0  0  0  0  0
  -26.7721   34.8848  -18.2304 C   0  0  0  0  0  0  0  0  0  0  0  0
  -25.8557   35.5710  -15.6996 C   0  0  0  0  0  0  0  0  0  0  0  0
  -27.0256   36.1616  -17.7157 C   0  0  0  0  0  0  0  0  0  0  0  0
  -26.5637   36.4925  -16.4527 C   0  0  0  0  0  0  0  0  0  0  0  0
  -26.8033   37.7127  -15.9564 F   0  0  0  0  0  0  0  0  0  0  0  0
  -24.3090   27.3949  -18.1407 H   0  0  0  0  0  0  0  0  0  0  0  0
  -25.7483   26.3844  -18.4342 H   0  0  0  0  0  0  0  0  0  0  0  0
  -25.8566   27.7490  -17.2908 H   0  0  0  0  0  0  0  0  0  0  0  0
  -24.6097   31.5377  -20.2713 H   0  0  0  0  0  0  0  0  0  0  0  0
  -26.0891   30.8249  -20.9005 H   0  0  0  0  0  0  0  0  0  0  0  0
  -26.2611   30.0641  -17.1952 H   0  0  0  0  0  0  0  0  0  0  0  0
  -24.5461   29.5958  -17.1626 H   0  0  0  0  0  0  0  0  0  0  0  0
  -26.5138   33.0545  -19.9808 H   0  0  0  0  0  0  0  0  0  0  0  0
  -27.4289   31.8294  -19.0771 H   0  0  0  0  0  0  0  0  0  0  0  0
  -23.8643   31.9090  -17.7247 H   0  0  0  0  0  0  0  0  0  0  0  0
  -24.8883   31.8534  -16.2739 H   0  0  0  0  0  0  0  0  0  0  0  0
  -25.0283   33.6092  -15.6125 H   0  0  0  0  0  0  0  0  0  0  0  0
  -27.1683   34.6544  -19.2155 H   0  0  0  0  0  0  0  0  0  0  0  0
  -25.4934   35.8443  -14.7141 H   0  0  0  0  0  0  0  0  0  0  0  0
  -27.5831   36.8912  -18.2937 H   0  0  0  0  0  0  0  0  0  0  0  0
  1  2  2  0  0  0  0
  1  3  2  0  0  0  0
  1  4  1  0  0  0  0
  1  5  1  0  0  0  0
  4  6  1  0  0  0  0
  4  7  1  0  0  0  0
  5 18  1  0  0  0  0
  5 19  1  0  0  0  0
  5 20  1  0  0  0  0
  6  8  1  0  0  0  0
  6 21  1  0  0  0  0
  6 22  1  0  0  0  0
  7  9  1  0  0  0  0
  7 23  1  0  0  0  0
  7 24  1  0  0  0  0
  8 10  1  0  0  0  0
  8 25  1  0  0  0  0
  8 26  1  0  0  0  0
  9 10  1  0  0  0  0
  9 27  1  0  0  0  0
  9 28  1  0  0  0  0
 10 11  1  0  0  0  0
 11 12  2  0  0  0  0
 11 13  1  0  0  0  0
 12 14  1  0  0  0  0
 12 29  1  0  0  0  0
 13 15  2  0  0  0  0
 13 30  1  0  0  0  0
 14 16  2  0  0  0  0
 14 31  1  0  0  0  0
 15 16  1  0  0  0  0
 15 32  1  0  0  0  0
 16 17  1  0  0  0  0
M  END
>  <Column 1>
CS(=O)(=O)N1CCN(c2ccc(F)cc2)CC1 ZINC000000029520

>  <Total Molweight>
258.316

>  <cLogP>
1.1574

>  <cLogS>
-2.237

>  <H-Acceptors>
4

>  <H-Donors>
0

>  <Total Surface Area>
182.59

>  <MMFF94 Energy>
28.116

> <Gold.Version>
5.8.1

> <Gold.Id.Protein>
ID|2FQT|mol2

> <Gold.PLP.Fitness>
50.9933

> <Gold.PLP.PLP>
-42.5501

> <Gold.PLP.part.hbond>
-1.0000

> <Gold.PLP.part.metal>
-1.0000

> <Gold.PLP.part.buried>
-4.3246

> <Gold.PLP.part.nonpolar>
-36.9449

> <Gold.PLP.part.repulsive>
0.0027

> <Gold.PLP.ligand.clash>
0.0000

> <Gold.PLP.ligand.torsion>
1.2576

> <Gold.PLP.Chemscore.Hbond>
0.9760

> <Gold.PLP.Chemscore.CHOScore>
0.0000

> <Gold.PLP.Chemscore.Metal>
1.0000

> <Gold.Chemscore.Hbonds>
donor molecule, donor type, donor heavy atom, donor atom, acceptor molecule, acceptor atom, score
      P1  H   966  2177       L1     2  0.98
      P1  M  1222  1222       L1     2  1.00

> <Gold.PLP.Chemscore.Internal.Correction>
2.0305

> <Gold.Protein.RotatedTorsions>
[ 1849  621  620  617 ] final  166.48 input   60.00 | X-H torsion

> <Gold.Protein.ActiveResidues>
 HIS54   GLU57   HIS58   ALA61   PHE62   ILE76   ILE77   ASP78   ILE79   SER80  
 PRO81   GLN125  CYS126  GLY127  GLN128  HIS132  CO701  

> <Gold.Protein.RotatedAtoms>
  -18.1749   27.4629  -13.6655 H   0  0  0  0  0  0  0  0  0  0  0  0  # atno 1849 bound_to 621 
  -18.6966   28.7980  -12.8950 LP  0  0  0  0  0  0  0  0  0  0  0  0  # atno 2431 bound_to 621 
  -19.7152   27.9537  -13.8522 LP  0  0  0  0  0  0  0  0  0  0  0  0  # atno 2432 bound_to 621 

$$$$
Compound 148|DecoysActives|sdf|155|dock5
  -GOLD-   6112412153D 1   1.00000     0.00000

 36 37  0  0  0  0  0  0  0  0  1 V2000
  -26.0959   29.6357  -19.0913 S   0  0  0  0  0  0  0  0  0  0  0  0
  -26.4811   28.9185  -17.8945 O   0  0  0  0  0  0  0  0  0  0  0  0
  -27.0794   30.0545  -20.0659 O   0  0  0  0  0  0  0  0  0  0  0  0
  -25.2256   31.0130  -18.6096 N   0  0  0  0  0  0  0  0  0  0  0  0
  -24.8364   28.6781  -19.9099 C   0  0  0  0  0  0  0  0  0  0  0  0
  -25.4769   32.2604  -19.4111 C   0  0  0  0  0  0  0  0  0  0  0  0
  -25.2798   31.2544  -17.1253 C   0  0  0  0  0  0  0  0  0  0  0  0
  -26.3715   33.2754  -18.6745 C   0  0  0  0  0  0  0  0  0  0  0  0
  -24.8792   32.6915  -16.7477 C   0  0  0  0  0  0  0  0  0  0  0  0
  -25.7669   33.6699  -17.3907 N   0  0  0  0  0  0  0  0  0  0  0  0
  -25.9356   34.9510  -16.8834 C   0  0  0  0  0  0  0  0  0  0  0  0
  -24.8868   35.7182  -16.3273 C   0  0  0  0  0  0  0  0  0  0  0  0
  -27.2028   35.5632  -16.8945 C   0  0  0  0  0  0  0  0  0  0  0  0
  -23.5878   35.2604  -16.3036 O   0  0  0  0  0  0  0  0  0  0  0  0
  -25.1039   36.9823  -15.7612 C   0  0  0  0  0  0  0  0  0  0  0  0
  -27.4233   36.8374  -16.3537 C   0  0  0  0  0  0  0  0  0  0  0  0
  -22.6910   36.3722  -16.3603 C   0  0  0  0  0  0  0  0  0  0  0  0
  -26.3745   37.5441  -15.7787 C   0  0  0  0  0  0  0  0  0  0  0  0
  -24.4867   29.2093  -20.7954 H   0  0  0  0  0  0  0  0  0  0  0  0
  -25.2826   27.7262  -20.2066 H   0  0  0  0  0  0  0  0  0  0  0  0
  -24.0190   28.4989  -19.2090 H   0  0  0  0  0  0  0  0  0  0  0  0
  -24.4979   32.7083  -19.6233 H   0  0  0  0  0  0  0  0  0  0  0  0
  -25.9222   32.0221  -20.3818 H   0  0  0  0  0  0  0  0  0  0  0  0
  -24.5946   30.5530  -16.6367 H   0  0  0  0  0  0  0  0  0  0  0  0
  -26.2959   31.0617  -16.7584 H   0  0  0  0  0  0  0  0  0  0  0  0
  -27.3579   32.8334  -18.4958 H   0  0  0  0  0  0  0  0  0  0  0  0
  -26.4901   34.1422  -19.3352 H   0  0  0  0  0  0  0  0  0  0  0  0
  -23.8433   32.8799  -17.0546 H   0  0  0  0  0  0  0  0  0  0  0  0
  -24.9356   32.7809  -15.6560 H   0  0  0  0  0  0  0  0  0  0  0  0
  -28.0632   35.0375  -17.2993 H   0  0  0  0  0  0  0  0  0  0  0  0
  -24.2740   37.5262  -15.3194 H   0  0  0  0  0  0  0  0  0  0  0  0
  -28.4222   37.2656  -16.3720 H   0  0  0  0  0  0  0  0  0  0  0  0
  -22.8493   36.9771  -17.2597 H   0  0  0  0  0  0  0  0  0  0  0  0
  -21.6718   35.9762  -16.3954 H   0  0  0  0  0  0  0  0  0  0  0  0
  -22.7812   36.9949  -15.4633 H   0  0  0  0  0  0  0  0  0  0  0  0
  -26.5448   38.5265  -15.3479 H   0  0  0  0  0  0  0  0  0  0  0  0
  1  2  2  0  0  0  0
  1  3  2  0  0  0  0
  1  4  1  0  0  0  0
  1  5  1  0  0  0  0
  4  6  1  0  0  0  0
  4  7  1  0  0  0  0
  5 19  1  0  0  0  0
  5 20  1  0  0  0  0
  5 21  1  0  0  0  0
  6  8  1  0  0  0  0
  6 22  1  0  0  0  0
  6 23  1  0  0  0  0
  7  9  1  0  0  0  0
  7 24  1  0  0  0  0
  7 25  1  0  0  0  0
  8 10  1  0  0  0  0
  8 26  1  0  0  0  0
  8 27  1  0  0  0  0
  9 10  1  0  0  0  0
  9 28  1  0  0  0  0
  9 29  1  0  0  0  0
 10 11  1  0  0  0  0
 11 12  2  0  0  0  0
 11 13  1  0  0  0  0
 12 14  1  0  0  0  0
 12 15  1  0  0  0  0
 13 16  2  0  0  0  0
 13 30  1  0  0  0  0
 14 17  1  0  0  0  0
 15 18  2  0  0  0  0
 15 31  1  0  0  0  0
 16 18  1  0  0  0  0
 16 32  1  0  0  0  0
 17 33  1  0  0  0  0
 17 34  1  0  0  0  0
 17 35  1  0  0  0  0
 18 36  1  0  0  0  0
M  END
>  <Column 1>
COc1ccccc1N1CCN(S(C)(=O)=O)CC1 ZINC000000029521

>  <Total Molweight>
270.352

>  <cLogP>
0.9866

>  <cLogS>
-1.941

>  <H-Acceptors>
5

>  <H-Donors>
0

>  <Total Surface Area>
198.5

>  <MMFF94 Energy>
56.369

> <Gold.Version>
5.8.1

> <Gold.Id.Protein>
ID|2FQT|mol2

> <Gold.PLP.Fitness>
55.8301

> <Gold.PLP.PLP>
-42.0129

> <Gold.PLP.part.hbond>
-1.0000

> <Gold.PLP.part.metal>
-2.0000

> <Gold.PLP.part.buried>
0.6116

> <Gold.PLP.part.nonpolar>
-40.1045

> <Gold.PLP.part.repulsive>
0.2313

> <Gold.PLP.ligand.clash>
6.6741

> <Gold.PLP.ligand.torsion>
1.3806

> <Gold.PLP.Chemscore.Hbond>
1.0000

> <Gold.PLP.Chemscore.CHOScore>
0.0000

> <Gold.PLP.Chemscore.Metal>
1.9949

> <Gold.Chemscore.Hbonds>
donor molecule, donor type, donor heavy atom, donor atom, acceptor molecule, acceptor atom, score
      P1  H   966  2177       L1     3  1.00
      P1  M  1222  1222       L1     2  1.00
      P1  M  1222  1222       L1     3  1.00

> <Gold.PLP.Chemscore.Internal.Correction>
8.2833

> <Gold.Protein.RotatedTorsions>
[ 1849  621  620  617 ] final   53.97 input   60.00 | X-H torsion

> <Gold.Protein.ActiveResidues>
 HIS54   GLU57   HIS58   ALA61   PHE62   ILE76   ILE77   ASP78   ILE79   SER80  
 PRO81   GLN125  CYS126  GLY127  GLN128  HIS132  CO701  

> <Gold.Protein.RotatedAtoms>
  -18.5841   28.7485  -12.8884 H   0  0  0  0  0  0  0  0  0  0  0  0  # atno 1849 bound_to 621 
  -19.7476   28.0555  -13.7907 LP  0  0  0  0  0  0  0  0  0  0  0  0  # atno 2431 bound_to 621 
  -18.2521   27.4016  -13.7391 LP  0  0  0  0  0  0  0  0  0  0  0  0  # atno 2432 bound_to 621 

$$$$
Compound 149|DecoysActives|sdf|156|dock1
  -GOLD-   6112412153D 1   1.00000     0.00000

 37 38  0  0  0  0  0  0  0  0  1 V2000
  -25.9429   30.3800  -19.0863 S   0  0  0  0  0  0  0  0  0  0  0  0
  -26.1381   29.7560  -17.8000 O   0  0  0  0  0  0  0  0  0  0  0  0
  -27.0630   30.6784  -19.9481 O   0  0  0  0  0  0  0  0  0  0  0  0
  -25.0370   31.7843  -18.8735 N   0  0  0  0  0  0  0  0  0  0  0  0
  -24.8414   29.4461  -19.9745 N   0  0  0  0  0  0  0  0  0  0  0  0
  -25.6345   33.0227  -19.4762 C   0  0  0  0  0  0  0  0  0  0  0  0
  -24.5443   32.0489  -17.4776 C   0  0  0  0  0  0  0  0  0  0  0  0
  -25.2686   29.1436  -21.3586 C   0  0  0  0  0  0  0  0  0  0  0  0
  -24.4108   28.2226  -19.2632 C   0  0  0  0  0  0  0  0  0  0  0  0
  -26.7108   33.6465  -18.5702 C   0  0  0  0  0  0  0  0  0  0  0  0
  -25.5992   32.7248  -16.5720 C   0  0  0  0  0  0  0  0  0  0  0  0
  -26.1512   33.9203  -17.2373 N   0  0  0  0  0  0  0  0  0  0  0  0
  -25.7872   35.1879  -16.8202 C   0  0  0  0  0  0  0  0  0  0  0  0
  -26.7208   36.2163  -16.6209 C   0  0  0  0  0  0  0  0  0  0  0  0
  -24.4441   35.5016  -16.5542 C   0  0  0  0  0  0  0  0  0  0  0  0
  -26.3347   37.4951  -16.1986 C   0  0  0  0  0  0  0  0  0  0  0  0
  -24.0479   36.7754  -16.1297 C   0  0  0  0  0  0  0  0  0  0  0  0
  -24.9959   37.7755  -15.9548 C   0  0  0  0  0  0  0  0  0  0  0  0
  -26.0488   32.8067  -20.4661 H   0  0  0  0  0  0  0  0  0  0  0  0
  -24.8164   33.7355  -19.6377 H   0  0  0  0  0  0  0  0  0  0  0  0
  -23.6668   32.7025  -17.5654 H   0  0  0  0  0  0  0  0  0  0  0  0
  -24.1890   31.1235  -17.0128 H   0  0  0  0  0  0  0  0  0  0  0  0
  -26.1191   28.4554  -21.3694 H   0  0  0  0  0  0  0  0  0  0  0  0
  -25.5305   30.0562  -21.9007 H   0  0  0  0  0  0  0  0  0  0  0  0
  -24.4403   28.6786  -21.9034 H   0  0  0  0  0  0  0  0  0  0  0  0
  -25.2567   27.5512  -19.0867 H   0  0  0  0  0  0  0  0  0  0  0  0
  -23.9386   28.4782  -18.3102 H   0  0  0  0  0  0  0  0  0  0  0  0
  -23.6618   27.6892  -19.8576 H   0  0  0  0  0  0  0  0  0  0  0  0
  -27.5479   32.9474  -18.4562 H   0  0  0  0  0  0  0  0  0  0  0  0
  -27.1362   34.5424  -19.0356 H   0  0  0  0  0  0  0  0  0  0  0  0
  -26.4216   32.0369  -16.3527 H   0  0  0  0  0  0  0  0  0  0  0  0
  -25.1271   32.9513  -15.6103 H   0  0  0  0  0  0  0  0  0  0  0  0
  -27.7764   36.0532  -16.8129 H   0  0  0  0  0  0  0  0  0  0  0  0
  -23.6785   34.7346  -16.6401 H   0  0  0  0  0  0  0  0  0  0  0  0
  -27.0858   38.2685  -16.0625 H   0  0  0  0  0  0  0  0  0  0  0  0
  -22.9994   36.9755  -15.9269 H   0  0  0  0  0  0  0  0  0  0  0  0
  -24.6941   38.7649  -15.6235 H   0  0  0  0  0  0  0  0  0  0  0  0
  1  2  2  0  0  0  0
  1  3  2  0  0  0  0
  1  4  1  0  0  0  0
  1  5  1  0  0  0  0
  4  6  1  0  0  0  0
  4  7  1  0  0  0  0
  5  8  1  0  0  0  0
  5  9  1  0  0  0  0
  6 10  1  0  0  0  0
  6 19  1  0  0  0  0
  6 20  1  0  0  0  0
  7 11  1  0  0  0  0
  7 21  1  0  0  0  0
  7 22  1  0  0  0  0
  8 23  1  0  0  0  0
  8 24  1  0  0  0  0
  8 25  1  0  0  0  0
  9 26  1  0  0  0  0
  9 27  1  0  0  0  0
  9 28  1  0  0  0  0
 10 12  1  0  0  0  0
 10 29  1  0  0  0  0
 10 30  1  0  0  0  0
 11 12  1  0  0  0  0
 11 31  1  0  0  0  0
 11 32  1  0  0  0  0
 12 13  1  0  0  0  0
 13 14  2  0  0  0  0
 13 15  1  0  0  0  0
 14 16  1  0  0  0  0
 14 33  1  0  0  0  0
 15 17  2  0  0  0  0
 15 34  1  0  0  0  0
 16 18  2  0  0  0  0
 16 35  1  0  0  0  0
 17 18  1  0  0  0  0
 17 36  1  0  0  0  0
 18 37  1  0  0  0  0
M  END
>  <Column 1>
CN(C)S(=O)(=O)N1CCN(c2ccccc2)CC1 ZINC000000030415

>  <Total Molweight>
269.368

>  <cLogP>
0.9143

>  <cLogS>
-0.956

>  <H-Acceptors>
5

>  <H-Donors>
0

>  <Total Surface Area>
198.8

>  <MMFF94 Energy>
-84.508

> <Gold.Version>
5.8.1

> <Gold.Id.Protein>
ID|2FQT|mol2

> <Gold.PLP.Fitness>
46.8751

> <Gold.PLP.PLP>
-35.4511

> <Gold.PLP.part.hbond>
-0.8891

> <Gold.PLP.part.metal>
-2.0000

> <Gold.PLP.part.buried>
-0.5357

> <Gold.PLP.part.nonpolar>
-31.4428

> <Gold.PLP.part.repulsive>
0.2491

> <Gold.PLP.ligand.clash>
0.0000

> <Gold.PLP.ligand.torsion>
1.3710

> <Gold.PLP.Chemscore.Hbond>
0.5678

> <Gold.PLP.Chemscore.CHOScore>
0.0000

> <Gold.PLP.Chemscore.Metal>
1.9559

> <Gold.Chemscore.Hbonds>
donor molecule, donor type, donor heavy atom, donor atom, acceptor molecule, acceptor atom, score
      P1  H   966  2177       L1     3  0.57
      P1  M  1222  1222       L1     2  0.97
      P1  M  1222  1222       L1     3  0.99

> <Gold.PLP.Chemscore.Internal.Correction>
0.7271

> <Gold.Protein.RotatedTorsions>
[ 1849  621  620  617 ] final   20.95 input   60.00 | X-H torsion

> <Gold.Protein.ActiveResidues>
 HIS54   GLU57   HIS58   ALA61   PHE62   ILE76   ILE77   ASP78   ILE79   SER80  
 PRO81   GLN125  CYS126  GLY127  GLN128  HIS132  CO701  

> <Gold.Protein.RotatedAtoms>
  -19.0961   28.8431  -12.9985 H   0  0  0  0  0  0  0  0  0  0  0  0  # atno 1849 bound_to 621 
  -19.5006   27.6322  -14.0076 LP  0  0  0  0  0  0  0  0  0  0  0  0  # atno 2431 bound_to 621 
  -17.9835   27.7296  -13.4113 LP  0  0  0  0  0  0  0  0  0  0  0  0  # atno 2432 bound_to 621 

$$$$
Compound 150|DecoysActives|sdf|157|dock15
  -GOLD-   6112412153D 1   1.00000     0.00000

 29 29  0  0  0  0  0  0  0  0  1 V2000
  -26.2655   30.3264  -19.6918 S   0  0  0  0  0  0  0  0  0  0  0  0
  -27.0982   31.4959  -19.5431 O   0  0  0  0  0  0  0  0  0  0  0  0
  -26.7984   28.9911  -19.5773 O   0  0  0  0  0  0  0  0  0  0  0  0
  -25.4288   30.4691  -21.1334 N   0  0  0  0  0  0  0  0  0  0  0  0
  -25.0472   30.4990  -18.5852 N   0  0  0  0  0  0  0  0  0  0  0  0
  -25.3199   31.7782  -21.7837 C   0  0  0  0  0  0  0  0  0  0  0  0
  -25.4413   29.3308  -22.0593 C   0  0  0  0  0  0  0  0  0  0  0  0
  -25.3213   30.9284  -17.2116 C   0  0  0  0  0  0  0  0  0  0  0  0
  -24.5475   32.2175  -16.8949 C   0  0  1  0  0  0  0  0  0  0  0  0
  -25.0892   33.3052  -17.6792 O   0  0  0  0  0  0  0  0  0  0  0  0
  -24.5997   32.6443  -15.4316 C   0  0  0  0  0  0  0  0  0  0  0  0
  -25.3561   34.4013  -16.7946 C   0  0  0  0  0  0  0  0  0  0  0  0
  -25.5762   33.7945  -15.4293 C   0  0  0  0  0  0  0  0  0  0  0  0
  -24.2716   29.8497  -18.7017 H   0  0  0  0  0  0  0  0  0  0  0  0
  -26.0841   31.8990  -22.5559 H   0  0  0  0  0  0  0  0  0  0  0  0
  -25.4043   32.6030  -21.0718 H   0  0  0  0  0  0  0  0  0  0  0  0
  -24.3354   31.8661  -22.2551 H   0  0  0  0  0  0  0  0  0  0  0  0
  -26.3945   29.2771  -22.5929 H   0  0  0  0  0  0  0  0  0  0  0  0
  -25.2663   28.3883  -21.5336 H   0  0  0  0  0  0  0  0  0  0  0  0
  -24.6373   29.4376  -22.7950 H   0  0  0  0  0  0  0  0  0  0  0  0
  -26.3905   31.0919  -17.0485 H   0  0  0  0  0  0  0  0  0  0  0  0
  -24.9714   30.1415  -16.5360 H   0  0  0  0  0  0  0  0  0  0  0  0
  -23.5045   32.0748  -17.2012 H   0  0  0  0  0  0  0  0  0  0  0  0
  -23.6109   33.0094  -15.1269 H   0  0  0  0  0  0  0  0  0  0  0  0
  -24.8742   31.8396  -14.7431 H   0  0  0  0  0  0  0  0  0  0  0  0
  -24.4830   35.0627  -16.8011 H   0  0  0  0  0  0  0  0  0  0  0  0
  -26.2241   34.9610  -17.1532 H   0  0  0  0  0  0  0  0  0  0  0  0
  -26.6007   33.4149  -15.3462 H   0  0  0  0  0  0  0  0  0  0  0  0
  -25.4104   34.5050  -14.6154 H   0  0  0  0  0  0  0  0  0  0  0  0
  1  2  2  0  0  0  0
  1  3  2  0  0  0  0
  1  4  1  0  0  0  0
  1  5  1  0  0  0  0
  4  6  1  0  0  0  0
  4  7  1  0  0  0  0
  5  8  1  0  0  0  0
  5 14  1  0  0  0  0
  6 15  1  0  0  0  0
  6 16  1  0  0  0  0
  6 17  1  0  0  0  0
  7 18  1  0  0  0  0
  7 19  1  0  0  0  0
  7 20  1  0  0  0  0
  8  9  1  0  0  0  0
  8 21  1  0  0  0  0
  8 22  1  0  0  0  0
  9 10  1  0  0  0  0
  9 11  1  0  0  0  0
  9 23  1  0  0  0  0
 10 12  1  0  0  0  0
 11 13  1  0  0  0  0
 11 24  1  0  0  0  0
 11 25  1  0  0  0  0
 12 13  1  0  0  0  0
 12 26  1  0  0  0  0
 12 27  1  0  0  0  0
 13 28  1  0  0  0  0
 13 29  1  0  0  0  0
M  END
>  <Column 1>
CN(C)S(=O)(=O)NC[C@@H]1CCCO1 ZINC000000030464

>  <Total Molweight>
208.281

>  <cLogP>
-0.3079

>  <cLogS>
-0.641

>  <H-Acceptors>
5

>  <H-Donors>
1

>  <Total Surface Area>
152.4

>  <MMFF94 Energy>
-160.48

> <Gold.Version>
5.8.1

> <Gold.Id.Protein>
ID|2FQT|mol2

> <Gold.PLP.Fitness>
40.5487

> <Gold.PLP.PLP>
-26.7131

> <Gold.PLP.part.hbond>
-1.0000

> <Gold.PLP.part.metal>
-1.8008

> <Gold.PLP.part.buried>
0.3747

> <Gold.PLP.part.nonpolar>
-24.0038

> <Gold.PLP.part.repulsive>
0.4267

> <Gold.PLP.ligand.clash>
0.0000

> <Gold.PLP.ligand.torsion>
1.6479

> <Gold.PLP.Chemscore.Hbond>
0.9500

> <Gold.PLP.Chemscore.CHOScore>
0.0000

> <Gold.PLP.Chemscore.Metal>
1.8829

> <Gold.Chemscore.Hbonds>
donor molecule, donor type, donor heavy atom, donor atom, acceptor molecule, acceptor atom, score
      P1  H   966  2177       L1     3  0.95
      P1  M  1222  1222       L1     2  0.90
      P1  M  1222  1222       L1     3  0.99

> <Gold.PLP.Chemscore.Internal.Correction>
2.9842

> <Gold.Protein.RotatedTorsions>
[ 1849  621  620  617 ] final  -90.11 input   60.00 | X-H torsion

> <Gold.Protein.ActiveResidues>
 HIS54   GLU57   HIS58   ALA61   PHE62   ILE76   ILE77   ASP78   ILE79   SER80  
 PRO81   GLN125  CYS126  GLY127  GLN128  HIS132  CO701  

> <Gold.Protein.RotatedAtoms>
  -19.5883   27.7391  -13.9586 H   0  0  0  0  0  0  0  0  0  0  0  0  # atno 1849 bound_to 621 
  -18.0304   27.6245  -13.5027 LP  0  0  0  0  0  0  0  0  0  0  0  0  # atno 2431 bound_to 621 
  -18.9581   28.8491  -12.9493 LP  0  0  0  0  0  0  0  0  0  0  0  0  # atno 2432 bound_to 621 

$$$$
Compound 151|DecoysActives|sdf|158|dock3
  -GOLD-   6112412153D 1   1.00000     0.00000

 37 38  0  0  0  0  0  0  0  0  1 V2000
  -26.1853   29.0219  -18.9479 S   0  0  0  0  0  0  0  0  0  0  0  0
  -26.6257   28.4365  -17.7037 O   0  0  0  0  0  0  0  0  0  0  0  0
  -27.0951   29.2220  -20.0529 O   0  0  0  0  0  0  0  0  0  0  0  0
  -25.4770   30.5084  -18.6228 N   0  0  0  0  0  0  0  0  0  0  0  0
  -24.8398   28.1566  -19.5109 N   0  0  0  0  0  0  0  0  0  0  0  0
  -25.3913   30.8985  -17.1811 C   0  0  0  0  0  0  0  0  0  0  0  0
  -25.8390   31.6625  -19.4952 C   0  0  0  0  0  0  0  0  0  0  0  0
  -24.9032   27.7772  -20.9374 C   0  0  0  0  0  0  0  0  0  0  0  0
  -24.3928   27.0355  -18.6596 C   0  0  0  0  0  0  0  0  0  0  0  0
  -24.4056   32.0709  -17.0009 C   0  0  0  0  0  0  0  0  0  0  0  0
  -24.8323   32.8186  -19.3049 C   0  0  0  0  0  0  0  0  0  0  0  0
  -24.7694   33.2000  -17.8779 N   0  0  0  0  0  0  0  0  0  0  0  0
  -25.4582   34.3112  -17.4236 C   0  0  0  0  0  0  0  0  0  0  0  0
  -26.4078   34.9876  -18.2082 C   0  0  0  0  0  0  0  0  0  0  0  0
  -25.2471   34.8038  -16.1226 C   0  0  0  0  0  0  0  0  0  0  0  0
  -27.0949   36.1099  -17.7297 C   0  0  0  0  0  0  0  0  0  0  0  0
  -25.9297   35.9232  -15.6342 C   0  0  0  0  0  0  0  0  0  0  0  0
  -26.8469   36.5686  -16.4462 C   0  0  0  0  0  0  0  0  0  0  0  0
  -27.5035   37.6411  -15.9860 F   0  0  0  0  0  0  0  0  0  0  0  0
  -25.0335   30.0575  -16.5790 H   0  0  0  0  0  0  0  0  0  0  0  0
  -26.3867   31.1845  -16.8228 H   0  0  0  0  0  0  0  0  0  0  0  0
  -26.8444   32.0145  -19.2395 H   0  0  0  0  0  0  0  0  0  0  0  0
  -25.8239   31.3628  -20.5475 H   0  0  0  0  0  0  0  0  0  0  0  0
  -25.7632   27.1295  -21.1323 H   0  0  0  0  0  0  0  0  0  0  0  0
  -24.9562   28.6695  -21.5682 H   0  0  0  0  0  0  0  0  0  0  0  0
  -23.9937   27.2390  -21.2249 H   0  0  0  0  0  0  0  0  0  0  0  0
  -25.0482   26.1678  -18.7840 H   0  0  0  0  0  0  0  0  0  0  0  0
  -24.3647   27.3119  -17.6034 H   0  0  0  0  0  0  0  0  0  0  0  0
  -23.3745   26.7479  -18.9409 H   0  0  0  0  0  0  0  0  0  0  0  0
  -24.3335   32.3658  -15.9483 H   0  0  0  0  0  0  0  0  0  0  0  0
  -23.4008   31.7327  -17.2865 H   0  0  0  0  0  0  0  0  0  0  0  0
  -25.1117   33.6480  -19.9620 H   0  0  0  0  0  0  0  0  0  0  0  0
  -23.8345   32.4879  -19.6197 H   0  0  0  0  0  0  0  0  0  0  0  0
  -26.6220   34.6685  -19.2234 H   0  0  0  0  0  0  0  0  0  0  0  0
  -24.5643   34.2919  -15.4489 H   0  0  0  0  0  0  0  0  0  0  0  0
  -27.8188   36.6231  -18.3540 H   0  0  0  0  0  0  0  0  0  0  0  0
  -25.7556   36.2812  -14.6251 H   0  0  0  0  0  0  0  0  0  0  0  0
  1  2  2  0  0  0  0
  1  3  2  0  0  0  0
  1  4  1  0  0  0  0
  1  5  1  0  0  0  0
  4  6  1  0  0  0  0
  4  7  1  0  0  0  0
  5  8  1  0  0  0  0
  5  9  1  0  0  0  0
  6 10  1  0  0  0  0
  6 20  1  0  0  0  0
  6 21  1  0  0  0  0
  7 11  1  0  0  0  0
  7 22  1  0  0  0  0
  7 23  1  0  0  0  0
  8 24  1  0  0  0  0
  8 25  1  0  0  0  0
  8 26  1  0  0  0  0
  9 27  1  0  0  0  0
  9 28  1  0  0  0  0
  9 29  1  0  0  0  0
 10 12  1  0  0  0  0
 10 30  1  0  0  0  0
 10 31  1  0  0  0  0
 11 12  1  0  0  0  0
 11 32  1  0  0  0  0
 11 33  1  0  0  0  0
 12 13  1  0  0  0  0
 13 14  2  0  0  0  0
 13 15  1  0  0  0  0
 14 16  1  0  0  0  0
 14 34  1  0  0  0  0
 15 17  2  0  0  0  0
 15 35  1  0  0  0  0
 16 18  2  0  0  0  0
 16 36  1  0  0  0  0
 17 18  1  0  0  0  0
 17 37  1  0  0  0  0
 18 19  1  0  0  0  0
M  END
>  <Column 1>
CN(C)S(=O)(=O)N1CCN(c2ccc(F)cc2)CC1 ZINC000000030549

>  <Total Molweight>
287.358

>  <cLogP>
1.0151

>  <cLogS>
-1.27

>  <H-Acceptors>
5

>  <H-Donors>
0

>  <Total Surface Area>
205.15

>  <MMFF94 Energy>
-84.368

> <Gold.Version>
5.8.1

> <Gold.Id.Protein>
ID|2FQT|mol2

> <Gold.PLP.Fitness>
50.5158

> <Gold.PLP.PLP>
-36.9964

> <Gold.PLP.part.hbond>
-0.6032

> <Gold.PLP.part.metal>
-2.0000

> <Gold.PLP.part.buried>
-1.1302

> <Gold.PLP.part.nonpolar>
-35.4871

> <Gold.PLP.part.repulsive>
0.6979

> <Gold.PLP.ligand.clash>
0.0000

> <Gold.PLP.ligand.torsion>
0.7407

> <Gold.PLP.Chemscore.Hbond>
0.7638

> <Gold.PLP.Chemscore.CHOScore>
0.0000

> <Gold.PLP.Chemscore.Metal>
1.9387

> <Gold.Chemscore.Hbonds>
donor molecule, donor type, donor heavy atom, donor atom, acceptor molecule, acceptor atom, score
      P1  H   966  2177       L1     3  0.76
      P1  M  1222  1222       L1     2  0.97
      P1  M  1222  1222       L1     3  0.97

> <Gold.PLP.Chemscore.Internal.Correction>
1.0774

> <Gold.Protein.RotatedTorsions>
[ 1849  621  620  617 ] final -134.24 input   60.00 | X-H torsion

> <Gold.Protein.ActiveResidues>
 HIS54   GLU57   HIS58   ALA61   PHE62   ILE76   ILE77   ASP78   ILE79   SER80  
 PRO81   GLN125  CYS126  GLY127  GLN128  HIS132  CO701  

> <Gold.Protein.RotatedAtoms>
  -19.0126   27.3434  -14.0417 H   0  0  0  0  0  0  0  0  0  0  0  0  # atno 1849 bound_to 621 
  -18.0095   28.1971  -13.0861 LP  0  0  0  0  0  0  0  0  0  0  0  0  # atno 2431 bound_to 621 
  -19.5586   28.6750  -13.2822 LP  0  0  0  0  0  0  0  0  0  0  0  0  # atno 2432 bound_to 621 

$$$$
Compound 152|DecoysActives|sdf|159|dock4
  -GOLD-   6112412153D 1   1.00000     0.00000

 31 31  0  0  0  0  0  0  0  0  1 V2000
  -26.6465   28.9260  -19.0141 S   0  0  0  0  0  0  0  0  0  0  0  0
  -27.0963   29.7449  -20.1128 O   0  0  0  0  0  0  0  0  0  0  0  0
  -27.3855   27.7740  -18.5592 O   0  0  0  0  0  0  0  0  0  0  0  0
  -25.0520   28.4517  -19.3400 N   0  0  0  0  0  0  0  0  0  0  0  0
  -26.3947   29.9261  -17.7128 N   0  0  0  0  0  0  0  0  0  0  0  0
  -24.5230   28.8722  -20.6561 C   0  0  0  0  0  0  0  0  0  0  0  0
  -24.8193   27.0068  -19.1072 C   0  0  0  0  0  0  0  0  0  0  0  0
  -25.1065   30.6136  -17.6388 C   0  0  0  0  0  0  0  0  0  0  0  0
  -25.2854   32.0313  -17.1486 C   0  0  0  0  0  0  0  0  0  0  0  0
  -25.9011   32.9992  -17.9525 C   0  0  0  0  0  0  0  0  0  0  0  0
  -24.8495   32.3934  -15.8668 C   0  0  0  0  0  0  0  0  0  0  0  0
  -26.0727   34.3045  -17.4844 C   0  0  0  0  0  0  0  0  0  0  0  0
  -25.0220   33.6981  -15.3997 C   0  0  0  0  0  0  0  0  0  0  0  0
  -25.6455   34.6611  -16.2003 C   0  0  0  0  0  0  0  0  0  0  0  0
  -25.7992   36.0710  -15.7117 C   0  0  0  0  0  0  0  0  0  0  0  0
  -27.2077   30.4809  -17.4650 H   0  0  0  0  0  0  0  0  0  0  0  0
  -25.0069   28.3252  -21.4706 H   0  0  0  0  0  0  0  0  0  0  0  0
  -24.6543   29.9465  -20.8089 H   0  0  0  0  0  0  0  0  0  0  0  0
  -23.4463   28.6760  -20.6976 H   0  0  0  0  0  0  0  0  0  0  0  0
  -25.4501   26.3974  -19.7616 H   0  0  0  0  0  0  0  0  0  0  0  0
  -25.0137   26.7504  -18.0618 H   0  0  0  0  0  0  0  0  0  0  0  0
  -23.7715   26.7592  -19.3062 H   0  0  0  0  0  0  0  0  0  0  0  0
  -24.4285   30.0903  -16.9553 H   0  0  0  0  0  0  0  0  0  0  0  0
  -24.6335   30.6327  -18.6268 H   0  0  0  0  0  0  0  0  0  0  0  0
  -26.2481   32.7477  -18.9521 H   0  0  0  0  0  0  0  0  0  0  0  0
  -24.3730   31.6543  -15.2251 H   0  0  0  0  0  0  0  0  0  0  0  0
  -26.5432   35.0433  -18.1295 H   0  0  0  0  0  0  0  0  0  0  0  0
  -24.6676   33.9561  -14.4041 H   0  0  0  0  0  0  0  0  0  0  0  0
  -25.9204   36.0964  -14.6238 H   0  0  0  0  0  0  0  0  0  0  0  0
  -24.9174   36.6594  -15.9835 H   0  0  0  0  0  0  0  0  0  0  0  0
  -26.6868   36.5411  -16.1481 H   0  0  0  0  0  0  0  0  0  0  0  0
  1  2  2  0  0  0  0
  1  3  2  0  0  0  0
  1  4  1  0  0  0  0
  1  5  1  0  0  0  0
  4  6  1  0  0  0  0
  4  7  1  0  0  0  0
  5  8  1  0  0  0  0
  5 16  1  0  0  0  0
  6 17  1  0  0  0  0
  6 18  1  0  0  0  0
  6 19  1  0  0  0  0
  7 20  1  0  0  0  0
  7 21  1  0  0  0  0
  7 22  1  0  0  0  0
  8  9  1  0  0  0  0
  8 23  1  0  0  0  0
  8 24  1  0  0  0  0
  9 10  2  0  0  0  0
  9 11  1  0  0  0  0
 10 12  1  0  0  0  0
 10 25  1  0  0  0  0
 11 13  2  0  0  0  0
 11 26  1  0  0  0  0
 12 14  2  0  0  0  0
 12 27  1  0  0  0  0
 13 14  1  0  0  0  0
 13 28  1  0  0  0  0
 14 15  1  0  0  0  0
 15 29  1  0  0  0  0
 15 30  1  0  0  0  0
 15 31  1  0  0  0  0
M  END
>  <Column 1>
Cc1ccc(CNS(=O)(=O)N(C)C)cc1 ZINC000000030724

>  <Total Molweight>
228.315

>  <cLogP>
1.1543

>  <cLogS>
-1.623

>  <H-Acceptors>
4

>  <H-Donors>
1

>  <Total Surface Area>
174.14

>  <MMFF94 Energy>
-175.76

> <Gold.Version>
5.8.1

> <Gold.Id.Protein>
ID|2FQT|mol2

> <Gold.PLP.Fitness>
56.4238

> <Gold.PLP.PLP>
-34.2961

> <Gold.PLP.part.hbond>
-1.2259

> <Gold.PLP.part.metal>
-3.0000

> <Gold.PLP.part.buried>
1.2838

> <Gold.PLP.part.nonpolar>
-30.9510

> <Gold.PLP.part.repulsive>
0.1192

> <Gold.PLP.ligand.clash>
0.0000

> <Gold.PLP.ligand.torsion>
1.0570

> <Gold.PLP.Chemscore.Hbond>
1.9913

> <Gold.PLP.Chemscore.CHOScore>
0.0000

> <Gold.PLP.Chemscore.Metal>
2.9731

> <Gold.Chemscore.Hbonds>
donor molecule, donor type, donor heavy atom, donor atom, acceptor molecule, acceptor atom, score
      L1  H     5    16       P1   437  1.00
      P1  H   966  2177       L1     2  0.99
      P1  M  1222  1222       L1     2  0.99
      P1  M  1222  1222       L1     3  0.99
      P1  M  1222  1222       L1     5  1.00

> <Gold.PLP.Chemscore.Internal.Correction>
0.4296

> <Gold.Protein.RotatedTorsions>
[ 1849  621  620  617 ] final  145.75 input   60.00 | X-H torsion

> <Gold.Protein.ActiveResidues>
 HIS54   GLU57   HIS58   ALA61   PHE62   ILE76   ILE77   ASP78   ILE79   SER80  
 PRO81   GLN125  CYS126  GLY127  GLN128  HIS132  CO701  

> <Gold.Protein.RotatedAtoms>
  -18.0127   27.6735  -13.4586 H   0  0  0  0  0  0  0  0  0  0  0  0  # atno 1849 bound_to 621 
  -19.0230   28.8518  -12.9699 LP  0  0  0  0  0  0  0  0  0  0  0  0  # atno 2431 bound_to 621 
  -19.5522   27.6879  -13.9857 LP  0  0  0  0  0  0  0  0  0  0  0  0  # atno 2432 bound_to 621 

$$$$
Compound 153|DecoysActives|sdf|160|dock7
  -GOLD-   6112412153D 1   1.00000     0.00000

 28 28  0  0  0  0  0  0  0  0  1 V2000
  -25.4742   34.5120  -17.2535 S   0  0  0  0  0  0  0  0  0  0  0  0
  -26.4955   34.4786  -18.2741 O   0  0  0  0  0  0  0  0  0  0  0  0
  -24.0975   34.8141  -17.5691 O   0  0  0  0  0  0  0  0  0  0  0  0
  -25.9835   35.5186  -15.9999 N   0  0  0  0  0  0  0  0  0  0  0  0
  -25.5056   33.0301  -16.4410 N   0  0  0  0  0  0  0  0  0  0  0  0
  -27.3800   35.9999  -16.0081 C   0  0  0  0  0  0  0  0  0  0  0  0
  -25.0237   36.4978  -15.4505 C   0  0  0  0  0  0  0  0  0  0  0  0
  -24.8473   32.9852  -15.1267 C   0  0  0  0  0  0  0  0  0  0  0  0
  -25.2659   31.8282  -17.2533 C   0  0  0  0  0  0  0  0  0  0  0  0
  -27.4882   37.2907  -16.8143 C   0  0  0  0  0  0  0  0  0  0  0  0
  -25.0840   37.7985  -16.2453 C   0  0  0  0  0  0  0  0  0  0  0  0
  -26.5096   38.3468  -16.3020 C   0  0  0  0  0  0  0  0  0  0  0  0
  -27.6903   36.1760  -14.9706 H   0  0  0  0  0  0  0  0  0  0  0  0
  -28.0617   35.2373  -16.3975 H   0  0  0  0  0  0  0  0  0  0  0  0
  -24.0063   36.0941  -15.4380 H   0  0  0  0  0  0  0  0  0  0  0  0
  -25.2838   36.6845  -14.4011 H   0  0  0  0  0  0  0  0  0  0  0  0
  -23.7585   32.9842  -15.2312 H   0  0  0  0  0  0  0  0  0  0  0  0
  -25.1533   33.8278  -14.5009 H   0  0  0  0  0  0  0  0  0  0  0  0
  -25.1437   32.0747  -14.5955 H   0  0  0  0  0  0  0  0  0  0  0  0
  -24.2094   31.7379  -17.5216 H   0  0  0  0  0  0  0  0  0  0  0  0
  -25.8740   31.8358  -18.1619 H   0  0  0  0  0  0  0  0  0  0  0  0
  -25.5555   30.9359  -16.6882 H   0  0  0  0  0  0  0  0  0  0  0  0
  -28.5117   37.6775  -16.7578 H   0  0  0  0  0  0  0  0  0  0  0  0
  -27.2786   37.0895  -17.8716 H   0  0  0  0  0  0  0  0  0  0  0  0
  -24.4206   38.5418  -15.7897 H   0  0  0  0  0  0  0  0  0  0  0  0
  -24.7235   37.6294  -17.2670 H   0  0  0  0  0  0  0  0  0  0  0  0
  -26.8153   38.6714  -15.2998 H   0  0  0  0  0  0  0  0  0  0  0  0
  -26.5429   39.2299  -16.9495 H   0  0  0  0  0  0  0  0  0  0  0  0
  1  2  2  0  0  0  0
  1  3  2  0  0  0  0
  1  4  1  0  0  0  0
  1  5  1  0  0  0  0
  4  6  1  0  0  0  0
  4  7  1  0  0  0  0
  5  8  1  0  0  0  0
  5  9  1  0  0  0  0
  6 10  1  0  0  0  0
  6 13  1  0  0  0  0
  6 14  1  0  0  0  0
  7 11  1  0  0  0  0
  7 15  1  0  0  0  0
  7 16  1  0  0  0  0
  8 17  1  0  0  0  0
  8 18  1  0  0  0  0
  8 19  1  0  0  0  0
  9 20  1  0  0  0  0
  9 21  1  0  0  0  0
  9 22  1  0  0  0  0
 10 12  1  0  0  0  0
 10 23  1  0  0  0  0
 10 24  1  0  0  0  0
 11 12  1  0  0  0  0
 11 25  1  0  0  0  0
 11 26  1  0  0  0  0
 12 27  1  0  0  0  0
 12 28  1  0  0  0  0
M  END
>  <Column 1>
CN(C)S(=O)(=O)N1CCCCC1 ZINC000000030853

>  <Total Molweight>
192.282

>  <cLogP>
0.4737

>  <cLogS>
-0.498

>  <H-Acceptors>
4

>  <H-Donors>
0

>  <Total Surface Area>
142.5

>  <MMFF94 Energy>
-161.41

> <Gold.Version>
5.8.1

> <Gold.Id.Protein>
ID|2FQT|mol2

> <Gold.PLP.Fitness>
34.5862

> <Gold.PLP.PLP>
-34.6033

> <Gold.PLP.part.hbond>
0.0000

> <Gold.PLP.part.metal>
0.0000

> <Gold.PLP.part.buried>
-3.6860

> <Gold.PLP.part.nonpolar>
-31.3684

> <Gold.PLP.part.repulsive>
0.0871

> <Gold.PLP.ligand.clash>
0.0000

> <Gold.PLP.ligand.torsion>
1.2955

> <Gold.PLP.Chemscore.Hbond>
0.0000

> <Gold.PLP.Chemscore.CHOScore>
0.0000

> <Gold.PLP.Chemscore.Metal>
0.0000

> <Gold.PLP.Chemscore.Internal.Correction>
2.5739

> <Gold.Protein.RotatedTorsions>
[ 1849  621  620  617 ] final  111.54 input   60.00 | X-H torsion

> <Gold.Protein.ActiveResidues>
 HIS54   GLU57   HIS58   ALA61   PHE62   ILE76   ILE77   ASP78   ILE79   SER80  
 PRO81   GLN125  CYS126  GLY127  GLN128  HIS132  CO701  

> <Gold.Protein.RotatedAtoms>
  -17.9889   28.1171  -13.1332 H   0  0  0  0  0  0  0  0  0  0  0  0  # atno 1849 bound_to 621 
  -19.4967   28.7218  -13.2272 LP  0  0  0  0  0  0  0  0  0  0  0  0  # atno 2431 bound_to 621 
  -19.1025   27.3712  -14.0560 LP  0  0  0  0  0  0  0  0  0  0  0  0  # atno 2432 bound_to 621 

$$$$
Compound 154|DecoysActives|sdf|161|dock1
  -GOLD-   6112412153D 1   1.00000     0.00000

 13 14  0  0  0  0  0  0  0  0  1 V2000
  -26.2374   31.1284  -20.5037 S   0  0  0  0  0  0  0  0  0  0  0  0
  -26.7335   29.7409  -19.7159 N   0  0  0  0  0  0  0  0  0  0  0  0
  -25.5505   31.8211  -19.0840 C   0  0  0  0  0  0  0  0  0  0  0  0
  -26.4236   29.7378  -18.4309 N   0  0  0  0  0  0  0  0  0  0  0  0
  -25.7576   30.8989  -18.0539 C   0  0  0  0  0  0  0  0  0  0  0  0
  -24.8958   33.0444  -18.8811 C   0  0  0  0  0  0  0  0  0  0  0  0
  -25.2876   31.2166  -16.7630 C   0  0  0  0  0  0  0  0  0  0  0  0
  -24.4402   33.3331  -17.5905 C   0  0  0  0  0  0  0  0  0  0  0  0
  -24.6320   32.4338  -16.5442 C   0  0  0  0  0  0  0  0  0  0  0  0
  -24.7464   33.7451  -19.6964 H   0  0  0  0  0  0  0  0  0  0  0  0
  -25.4379   30.5145  -15.9486 H   0  0  0  0  0  0  0  0  0  0  0  0
  -23.9283   34.2751  -17.4021 H   0  0  0  0  0  0  0  0  0  0  0  0
  -24.2702   32.6769  -15.5473 H   0  0  0  0  0  0  0  0  0  0  0  0
  1  2  1  0  0  0  0
  1  3  1  0  0  0  0
  2  4  2  0  0  0  0
  3  5  2  0  0  0  0
  3  6  1  0  0  0  0
  4  5  1  0  0  0  0
  5  7  1  0  0  0  0
  6  8  2  0  0  0  0
  6 10  1  0  0  0  0
  7  9  2  0  0  0  0
  7 11  1  0  0  0  0
  8  9  1  0  0  0  0
  8 12  1  0  0  0  0
  9 13  1  0  0  0  0
M  END
>  <Column 1>
c1ccc2snnc2c1 ZINC000000031178

>  <Total Molweight>
136.178

>  <cLogP>
1.7675

>  <cLogS>
-2.487

>  <H-Acceptors>
2

>  <H-Donors>
0

>  <Total Surface Area>
101.32

>  <MMFF94 Energy>
23.121

> <Gold.Version>
5.8.1

> <Gold.Id.Protein>
ID|2FQT|mol2

> <Gold.PLP.Fitness>
33.6160

> <Gold.PLP.PLP>
-18.6455

> <Gold.PLP.part.hbond>
-1.0000

> <Gold.PLP.part.metal>
-2.0000

> <Gold.PLP.part.buried>
-0.4347

> <Gold.PLP.part.nonpolar>
-15.1623

> <Gold.PLP.part.repulsive>
0.0869

> <Gold.PLP.ligand.clash>
0.0000

> <Gold.PLP.ligand.torsion>
0.0000

> <Gold.PLP.Chemscore.Hbond>
1.0000

> <Gold.PLP.Chemscore.CHOScore>
0.0000

> <Gold.PLP.Chemscore.Metal>
1.9951

> <Gold.Chemscore.Hbonds>
donor molecule, donor type, donor heavy atom, donor atom, acceptor molecule, acceptor atom, score
      P1  H   966  2177       L1     2  1.00
      P1  M  1222  1222       L1     2  1.00
      P1  M  1222  1222       L1     4  1.00

> <Gold.PLP.Chemscore.Internal.Correction>
0.0000

> <Gold.Protein.RotatedTorsions>
[ 1849  621  620  617 ] final  -79.03 input   60.00 | X-H torsion

> <Gold.Protein.ActiveResidues>
 HIS54   GLU57   HIS58   ALA61   PHE62   ILE76   ILE77   ASP78   ILE79   SER80  
 PRO81   GLN125  CYS126  GLY127  GLN128  HIS132  CO701  

> <Gold.Protein.RotatedAtoms>
  -19.6769   27.8801  -13.8886 H   0  0  0  0  0  0  0  0  0  0  0  0  # atno 1849 bound_to 621 
  -18.1162   27.5096  -13.6147 LP  0  0  0  0  0  0  0  0  0  0  0  0  # atno 2431 bound_to 621 
  -18.7830   28.8220  -12.9079 LP  0  0  0  0  0  0  0  0  0  0  0  0  # atno 2432 bound_to 621 

$$$$
Compound 155|DecoysActives|sdf|162|dock8
  -GOLD-   6112412153D 1   1.00000     0.00000

 26 26  0  0  0  0  0  0  0  0  1 V2000
  -24.2546   38.8296  -16.4130 O   0  0  0  0  0  0  0  0  0  0  0  0
  -25.0969   37.7975  -15.8921 C   0  0  1  0  0  0  0  0  0  0  0  0
  -23.0365   38.9890  -15.7001 C   0  0  0  0  0  0  0  0  0  0  0  0
  -26.4484   37.9135  -16.6029 C   0  0  0  0  0  0  0  0  0  0  0  0
  -24.4866   36.4092  -16.1137 C   0  0  0  0  0  0  0  0  0  0  0  0
  -27.4070   36.7955  -16.1964 C   0  0  0  0  0  0  0  0  0  0  0  0
  -25.4501   35.2962  -15.7018 C   0  0  0  0  0  0  0  0  0  0  0  0
  -26.8006   35.4056  -16.4192 C   0  0  2  0  0  0  0  0  0  0  0  0
  -26.6546   35.2229  -17.8307 O   0  0  0  0  0  0  0  0  0  0  0  0
  -26.1999   33.9272  -18.1950 C   0  0  0  0  0  0  0  0  0  0  0  0
  -25.2554   37.9679  -14.8189 H   0  0  0  0  0  0  0  0  0  0  0  0
  -22.3893   38.1183  -15.8308 H   0  0  0  0  0  0  0  0  0  0  0  0
  -22.5171   39.8620  -16.1051 H   0  0  0  0  0  0  0  0  0  0  0  0
  -23.2285   39.1637  -14.6372 H   0  0  0  0  0  0  0  0  0  0  0  0
  -26.2974   37.9055  -17.6903 H   0  0  0  0  0  0  0  0  0  0  0  0
  -26.8985   38.8882  -16.3778 H   0  0  0  0  0  0  0  0  0  0  0  0
  -23.5594   36.3064  -15.5389 H   0  0  0  0  0  0  0  0  0  0  0  0
  -24.1979   36.2943  -17.1660 H   0  0  0  0  0  0  0  0  0  0  0  0
  -28.3290   36.8962  -16.7812 H   0  0  0  0  0  0  0  0  0  0  0  0
  -27.6740   36.9136  -15.1391 H   0  0  0  0  0  0  0  0  0  0  0  0
  -25.6128   35.3456  -14.6178 H   0  0  0  0  0  0  0  0  0  0  0  0
  -24.9770   34.3307  -15.9078 H   0  0  0  0  0  0  0  0  0  0  0  0
  -27.4977   34.6552  -16.0257 H   0  0  0  0  0  0  0  0  0  0  0  0
  -25.1867   33.7469  -17.8273 H   0  0  0  0  0  0  0  0  0  0  0  0
  -26.8816   33.1590  -17.8180 H   0  0  0  0  0  0  0  0  0  0  0  0
  -26.1823   33.8674  -19.2867 H   0  0  0  0  0  0  0  0  0  0  0  0
  1  2  1  0  0  0  0
  1  3  1  0  0  0  0
  2  4  1  0  0  0  0
  2  5  1  0  0  0  0
  2 11  1  0  0  0  0
  3 12  1  0  0  0  0
  3 13  1  0  0  0  0
  3 14  1  0  0  0  0
  4  6  1  0  0  0  0
  4 15  1  0  0  0  0
  4 16  1  0  0  0  0
  5  7  1  0  0  0  0
  5 17  1  0  0  0  0
  5 18  1  0  0  0  0
  6  8  1  0  0  0  0
  6 19  1  0  0  0  0
  6 20  1  0  0  0  0
  7  8  1  0  0  0  0
  7 21  1  0  0  0  0
  7 22  1  0  0  0  0
  8  9  1  0  0  0  0
  8 23  1  0  0  0  0
  9 10  1  0  0  0  0
 10 24  1  0  0  0  0
 10 25  1  0  0  0  0
 10 26  1  0  0  0  0
M  END
>  <Column 1>
COC1CCC(OC)CC1 ZINC000000031221

>  <Total Molweight>
144.213

>  <cLogP>
1.2036

>  <cLogS>
-1.608

>  <H-Acceptors>
2

>  <H-Donors>
0

>  <Total Surface Area>
124.56

>  <MMFF94 Energy>
20.265

> <Gold.Version>
5.8.1

> <Gold.Id.Protein>
ID|2FQT|mol2

> <Gold.PLP.Fitness>
31.9803

> <Gold.PLP.PLP>
-32.0791

> <Gold.PLP.part.hbond>
0.0000

> <Gold.PLP.part.metal>
0.0000

> <Gold.PLP.part.buried>
-3.9509

> <Gold.PLP.part.nonpolar>
-28.4816

> <Gold.PLP.part.repulsive>
0.0801

> <Gold.PLP.ligand.clash>
0.0000

> <Gold.PLP.ligand.torsion>
0.0497

> <Gold.PLP.Chemscore.Hbond>
0.0000

> <Gold.PLP.Chemscore.CHOScore>
0.0000

> <Gold.PLP.Chemscore.Metal>
0.0000

> <Gold.PLP.Chemscore.Internal.Correction>
0.0006

> <Gold.Protein.RotatedTorsions>
[ 1849  621  620  617 ] final  118.47 input   60.00 | X-H torsion

> <Gold.Protein.ActiveResidues>
 HIS54   GLU57   HIS58   ALA61   PHE62   ILE76   ILE77   ASP78   ILE79   SER80  
 PRO81   GLN125  CYS126  GLY127  GLN128  HIS132  CO701  

> <Gold.Protein.RotatedAtoms>
  -17.9680   28.0233  -13.1930 H   0  0  0  0  0  0  0  0  0  0  0  0  # atno 1849 bound_to 621 
  -19.4140   28.7691  -13.1647 LP  0  0  0  0  0  0  0  0  0  0  0  0  # atno 2431 bound_to 621 
  -19.2062   27.4183  -14.0583 LP  0  0  0  0  0  0  0  0  0  0  0  0  # atno 2432 bound_to 621 

$$$$
Compound 156|DecoysActives|sdf|163|dock1
  -GOLD-   6112412153D 1   1.00000     0.00000

 16 17  0  0  0  0  0  0  0  0  1 V2000
  -26.0383   35.6081  -20.3543 O   0  0  0  0  0  0  0  0  0  0  0  0
  -25.8809   34.6704  -19.5818 C   0  0  0  0  0  0  0  0  0  0  0  0
  -25.2543   34.8186  -18.3629 N   0  0  0  0  0  0  0  0  0  0  0  0
  -26.3147   33.4011  -19.8679 N   0  0  0  0  0  0  0  0  0  0  0  0
  -25.0345   33.8260  -17.4356 C   0  0  0  0  0  0  0  0  0  0  0  0
  -26.1266   32.3834  -18.9936 C   0  0  0  0  0  0  0  0  0  0  0  0
  -24.4722   34.0073  -16.3648 O   0  0  0  0  0  0  0  0  0  0  0  0
  -25.5284   32.5143  -17.8249 C   0  0  0  0  0  0  0  0  0  0  0  0
  -26.5139   30.9792  -19.1193 C   0  0  0  0  0  0  0  0  0  0  0  0
  -25.4653   31.2545  -17.0925 C   0  0  0  0  0  0  0  0  0  0  0  0
  -27.0904   30.4873  -20.0711 O   0  0  0  0  0  0  0  0  0  0  0  0
  -26.1143   30.3261  -17.9845 O   0  0  0  0  0  0  0  0  0  0  0  0
  -24.9279   35.7461  -18.1348 H   0  0  0  0  0  0  0  0  0  0  0  0
  -26.7827   33.2392  -20.7541 H   0  0  0  0  0  0  0  0  0  0  0  0
  -24.4400   30.9172  -16.9166 H   0  0  0  0  0  0  0  0  0  0  0  0
  -26.0187   31.2842  -16.1497 H   0  0  0  0  0  0  0  0  0  0  0  0
  1  2  2  0  0  0  0
  2  3  1  0  0  0  0
  2  4  1  0  0  0  0
  3  5  1  0  0  0  0
  3 13  1  0  0  0  0
  4  6  1  0  0  0  0
  4 14  1  0  0  0  0
  5  7  2  0  0  0  0
  5  8  1  0  0  0  0
  6  9  1  0  0  0  0
  6  8  2  0  0  0  0
  8 10  1  0  0  0  0
  9 11  2  0  0  0  0
  9 12  1  0  0  0  0
 10 12  1  0  0  0  0
 10 15  1  0  0  0  0
 10 16  1  0  0  0  0
M  END
>  <Column 1>
O=C1OCc2c1[nH]c(=O)[nH]c2=O ZINC000000031381

>  <Total Molweight>
168.108

>  <cLogP>
-1.6133

>  <cLogS>
-1.081

>  <H-Acceptors>
6

>  <H-Donors>
2

>  <Total Surface Area>
109.35

>  <MMFF94 Energy>
-120.5

> <Gold.Version>
5.8.1

> <Gold.Id.Protein>
ID|2FQT|mol2

> <Gold.PLP.Fitness>
31.8844

> <Gold.PLP.PLP>
-14.7167

> <Gold.PLP.part.hbond>
-1.8445

> <Gold.PLP.part.metal>
-1.9716

> <Gold.PLP.part.buried>
3.0970

> <Gold.PLP.part.nonpolar>
-13.7063

> <Gold.PLP.part.repulsive>
0.4369

> <Gold.PLP.ligand.clash>
0.0000

> <Gold.PLP.ligand.torsion>
0.0000

> <Gold.PLP.Chemscore.Hbond>
1.9040

> <Gold.PLP.Chemscore.CHOScore>
0.0000

> <Gold.PLP.Chemscore.Metal>
1.9093

> <Gold.Chemscore.Hbonds>
donor molecule, donor type, donor heavy atom, donor atom, acceptor molecule, acceptor atom, score
      L1  H     4    14       P1   954  0.99
      P1  H   966  2177       L1    11  0.91
      P1  M  1222  1222       L1    11  0.97
      P1  M  1222  1222       L1    12  0.94

> <Gold.PLP.Chemscore.Internal.Correction>
0.0000

> <Gold.Protein.RotatedTorsions>
[ 1849  621  620  617 ] final  178.16 input   60.00 | X-H torsion

> <Gold.Protein.ActiveResidues>
 HIS54   GLU57   HIS58   ALA61   PHE62   ILE76   ILE77   ASP78   ILE79   SER80  
 PRO81   GLN125  CYS126  GLY127  GLN128  HIS132  CO701  

> <Gold.Protein.RotatedAtoms>
  -18.3074   27.3775  -13.7725 H   0  0  0  0  0  0  0  0  0  0  0  0  # atno 1849 bound_to 621 
  -18.5192   28.7252  -12.8855 LP  0  0  0  0  0  0  0  0  0  0  0  0  # atno 2431 bound_to 621 
  -19.7591   28.1126  -13.7539 LP  0  0  0  0  0  0  0  0  0  0  0  0  # atno 2432 bound_to 621 

$$$$
Compound 157|DecoysActives|sdf|164|dock3
  -GOLD-   6112412153D 1   1.00000     0.00000

 17 18  0  0  0  0  0  0  0  0  3 V2000
  -25.4982   30.7841  -21.1758 O   0  0  0  0  0  0  0  0  0  0  0  0
  -26.0870   30.5654  -20.1109 N   0  3  0  0  0  0  0  0  0  0  0  0
  -26.8189   29.5912  -19.8945 O   0  5  0  0  0  0  0  0  0  0  0  0
  -25.9001   31.5205  -19.0529 C   0  0  0  0  0  0  0  0  0  0  0  0
  -26.1821   32.9582  -19.2579 C   0  0  0  0  0  0  0  0  0  0  0  0
  -25.4637   31.1388  -17.8462 C   0  0  0  0  0  0  0  0  0  0  0  0
  -26.0365   33.8813  -18.3474 N   0  0  0  0  0  0  0  0  0  0  0  0
  -25.3014   32.1043  -16.8616 N   0  0  0  0  0  0  0  0  0  0  0  0
  -25.5877   33.4550  -17.1222 C   0  0  0  0  0  0  0  0  0  0  0  0
  -24.8745   31.9165  -15.5909 N   0  0  0  0  0  0  0  0  0  0  0  0
  -25.3199   34.1208  -15.9460 C   0  0  0  0  0  0  0  0  0  0  0  0
  -24.8889   33.1353  -15.0476 C   0  0  0  0  0  0  0  0  0  0  0  0
  -25.4550   35.5153  -15.7030 C   0  0  0  0  0  0  0  0  0  0  0  0
  -25.5797   36.6447  -15.4672 N   0  0  0  0  0  0  0  0  0  0  0  0
  -26.5409   33.2635  -20.2549 H   0  0  0  0  0  0  0  0  0  0  0  0
  -25.2201   30.1234  -17.5601 H   0  0  0  0  0  0  0  0  0  0  0  0
  -24.5824   33.2505  -14.0145 H   0  0  0  0  0  0  0  0  0  0  0  0
  1  2  2  0  0  0  0
  2  3  1  0  0  0  0
  2  4  1  0  0  0  0
  4  5  1  0  0  0  0
  4  6  2  0  0  0  0
  5  7  2  0  0  0  0
  5 15  1  0  0  0  0
  6  8  1  0  0  0  0
  6 16  1  0  0  0  0
  7  9  1  0  0  0  0
  8 10  1  0  0  0  0
  8  9  1  0  0  0  0
  9 11  2  0  0  0  0
 10 12  2  0  0  0  0
 11 13  1  0  0  0  0
 11 12  1  0  0  0  0
 12 17  1  0  0  0  0
 13 14  3  0  0  0  0
M  CHG  1   2   1
M  CHG  1   3  -1
M  END
>  <Column 1>
N#Cc1cnn2cc([N+](=O)[O-])cnc12 ZINC000000031426

>  <Total Molweight>
189.134

>  <cLogP>
-1.5237

>  <cLogS>
-2.671

>  <H-Acceptors>
6

>  <H-Donors>
0

>  <Total Surface Area>
141.41

>  <MMFF94 Energy>
30.051

> <Gold.Version>
5.8.1

> <Gold.Id.Protein>
ID|2FQT|mol2

> <Gold.PLP.Fitness>
45.9432

> <Gold.PLP.PLP>
-33.6980

> <Gold.PLP.part.hbond>
-1.0000

> <Gold.PLP.part.metal>
-1.0000

> <Gold.PLP.part.buried>
-4.5098

> <Gold.PLP.part.nonpolar>
-28.4154

> <Gold.PLP.part.repulsive>
0.4314

> <Gold.PLP.ligand.clash>
0.0000

> <Gold.PLP.ligand.torsion>
1.0089

> <Gold.PLP.Chemscore.Hbond>
1.0000

> <Gold.PLP.Chemscore.CHOScore>
1.8157

> <Gold.PLP.Chemscore.Metal>
0.9693

> <Gold.Chemscore.Hbonds>
donor molecule, donor type, donor heavy atom, donor atom, acceptor molecule, acceptor atom, score
      P1  H   966  2177       L1     3  1.00
      L1  C     5    15       P1   954  1.00
      L1  C    12    17       P1   422  0.82
      P1  M  1222  1222       L1     3  0.97

> <Gold.PLP.Chemscore.Internal.Correction>
0.0000

> <Gold.Protein.RotatedTorsions>
[ 1849  621  620  617 ] final   -7.14 input   60.00 | X-H torsion

> <Gold.Protein.ActiveResidues>
 HIS54   GLU57   HIS58   ALA61   PHE62   ILE76   ILE77   ASP78   ILE79   SER80  
 PRO81   GLN125  CYS126  GLY127  GLN128  HIS132  CO701  

> <Gold.Protein.RotatedAtoms>
  -19.4780   28.7257  -13.2150 H   0  0  0  0  0  0  0  0  0  0  0  0  # atno 1849 bound_to 621 
  -19.1225   27.3793  -14.0571 LP  0  0  0  0  0  0  0  0  0  0  0  0  # atno 2431 bound_to 621 
  -17.9771   28.1008  -13.1437 LP  0  0  0  0  0  0  0  0  0  0  0  0  # atno 2432 bound_to 621 

$$$$
Compound 158|DecoysActives|sdf|165|dock3
  -GOLD-   6112412153D 1   1.00000     0.00000

 22 23  0  0  0  0  0  0  0  0  1 V2000
  -24.7230   32.8434  -15.0959 F   0  0  0  0  0  0  0  0  0  0  0  0
  -25.3534   33.5563  -16.0413 C   0  0  0  0  0  0  0  0  0  0  0  0
  -25.4171   33.0812  -17.3591 C   0  0  0  0  0  0  0  0  0  0  0  0
  -25.8956   34.7880  -15.6915 C   0  0  0  0  0  0  0  0  0  0  0  0
  -24.8723   31.8251  -17.6922 N   0  0  0  0  0  0  0  0  0  0  0  0
  -26.0229   33.8784  -18.3396 C   0  0  0  0  0  0  0  0  0  0  0  0
  -26.5030   35.5568  -16.6739 C   0  0  0  0  0  0  0  0  0  0  0  0
  -23.5572   31.4882  -17.5048 C   0  0  0  0  0  0  0  0  0  0  0  0
  -25.5992   30.8173  -18.2746 C   0  0  0  0  0  0  0  0  0  0  0  0
  -26.5688   35.1172  -17.9932 C   0  0  0  0  0  0  0  0  0  0  0  0
  -27.0267   36.7459  -16.3506 F   0  0  0  0  0  0  0  0  0  0  0  0
  -22.6643   32.1716  -17.0238 O   0  0  0  0  0  0  0  0  0  0  0  0
  -23.3409   30.1016  -18.0355 C   0  0  0  0  0  0  0  0  0  0  0  0
  -26.7478   30.8552  -18.6910 O   0  0  0  0  0  0  0  0  0  0  0  0
  -24.7333   29.5948  -18.3486 C   0  0  0  0  0  0  0  0  0  0  0  0
  -25.8374   35.1441  -14.6700 H   0  0  0  0  0  0  0  0  0  0  0  0
  -26.0767   33.5465  -19.3740 H   0  0  0  0  0  0  0  0  0  0  0  0
  -27.0422   35.7430  -18.7442 H   0  0  0  0  0  0  0  0  0  0  0  0
  -22.7252   30.1578  -18.9387 H   0  0  0  0  0  0  0  0  0  0  0  0
  -22.8403   29.4770  -17.2909 H   0  0  0  0  0  0  0  0  0  0  0  0
  -24.7847   29.1440  -19.3433 H   0  0  0  0  0  0  0  0  0  0  0  0
  -25.0736   28.8709  -17.6017 H   0  0  0  0  0  0  0  0  0  0  0  0
  1  2  1  0  0  0  0
  2  3  2  0  0  0  0
  2  4  1  0  0  0  0
  3  5  1  0  0  0  0
  3  6  1  0  0  0  0
  4  7  2  0  0  0  0
  4 16  1  0  0  0  0
  5  8  1  0  0  0  0
  5  9  1  0  0  0  0
  6 10  2  0  0  0  0
  6 17  1  0  0  0  0
  7 11  1  0  0  0  0
  7 10  1  0  0  0  0
  8 12  2  0  0  0  0
  8 13  1  0  0  0  0
  9 14  2  0  0  0  0
  9 15  1  0  0  0  0
 10 18  1  0  0  0  0
 13 15  1  0  0  0  0
 13 19  1  0  0  0  0
 13 20  1  0  0  0  0
 15 21  1  0  0  0  0
 15 22  1  0  0  0  0
M  END
>  <Column 1>
O=C1CCC(=O)N1c1ccc(F)cc1F ZINC000000031532

>  <Total Molweight>
211.167

>  <cLogP>
1.2198

>  <cLogS>
-2.93

>  <H-Acceptors>
3

>  <H-Donors>
0

>  <Total Surface Area>
145.78

>  <MMFF94 Energy>
-10.083

> <Gold.Version>
5.8.1

> <Gold.Id.Protein>
ID|2FQT|mol2

> <Gold.PLP.Fitness>
45.0903

> <Gold.PLP.PLP>
-39.1654

> <Gold.PLP.part.hbond>
0.0000

> <Gold.PLP.part.metal>
-1.0000

> <Gold.PLP.part.buried>
-4.1659

> <Gold.PLP.part.nonpolar>
-33.9761

> <Gold.PLP.part.repulsive>
0.0624

> <Gold.PLP.ligand.clash>
0.0096

> <Gold.PLP.ligand.torsion>
1.0771

> <Gold.PLP.Chemscore.Hbond>
0.0000

> <Gold.PLP.Chemscore.CHOScore>
0.0000

> <Gold.PLP.Chemscore.Metal>
1.0000

> <Gold.Chemscore.Hbonds>
donor molecule, donor type, donor heavy atom, donor atom, acceptor molecule, acceptor atom, score
      P1  M  1222  1222       L1    14  1.00

> <Gold.PLP.Chemscore.Internal.Correction>
2.0888

> <Gold.Protein.RotatedTorsions>
[ 1849  621  620  617 ] final   65.72 input   60.00 | X-H torsion

> <Gold.Protein.ActiveResidues>
 HIS54   GLU57   HIS58   ALA61   PHE62   ILE76   ILE77   ASP78   ILE79   SER80  
 PRO81   GLN125  CYS126  GLY127  GLN128  HIS132  CO701  

> <Gold.Protein.RotatedAtoms>
  -18.4153   28.6579  -12.8946 H   0  0  0  0  0  0  0  0  0  0  0  0  # atno 1849 bound_to 621 
  -19.7677   28.2149  -13.6837 LP  0  0  0  0  0  0  0  0  0  0  0  0  # atno 2431 bound_to 621 
  -18.4020   27.3334  -13.8399 LP  0  0  0  0  0  0  0  0  0  0  0  0  # atno 2432 bound_to 621 

$$$$
Compound 159|DecoysActives|sdf|166|dock2
  -GOLD-   6112412153D 1   1.00000     0.00000

 27 29  0  0  0  0  0  0  0  0  1 V2000
  -27.3773   29.3790  -19.6809 O   0  0  0  0  0  0  0  0  0  0  0  0
  -26.4340   29.6816  -18.9594 C   0  0  0  0  0  0  0  0  0  0  0  0
  -26.3103   30.9483  -18.4508 O   0  0  0  0  0  0  0  0  0  0  0  0
  -25.3805   28.7089  -18.5958 C   0  0  0  0  0  0  0  0  0  0  0  0
  -25.2246   31.3053  -17.6176 C   0  0  0  0  0  0  0  0  0  0  0  0
  -25.4675   27.3851  -19.0995 C   0  0  0  0  0  0  0  0  0  0  0  0
  -24.3651   29.0835  -17.8028 C   0  0  0  0  0  0  0  0  0  0  0  0
  -24.2715   30.4291  -17.2874 C   0  0  0  0  0  0  0  0  0  0  0  0
  -25.1965   32.6866  -17.1332 C   0  0  0  0  0  0  0  0  0  0  0  0
  -25.5935   26.3042  -19.5025 N   0  0  0  0  0  0  0  0  0  0  0  0
  -23.1369   30.8376  -16.4047 C   0  0  0  0  0  0  0  0  0  0  0  0
  -24.1382   33.0938  -16.3010 C   0  0  0  0  0  0  0  0  0  0  0  0
  -26.2010   33.6039  -17.4834 C   0  0  0  0  0  0  0  0  0  0  0  0
  -22.2761   30.0047  -16.1205 O   0  0  0  0  0  0  0  0  0  0  0  0
  -23.1205   32.1523  -15.9504 N   0  0  0  0  0  0  0  0  0  0  0  0
  -24.1128   34.4192  -15.8373 C   0  0  0  0  0  0  0  0  0  0  0  0
  -26.1608   34.9158  -17.0145 C   0  0  0  0  0  0  0  0  0  0  0  0
  -22.0213   32.5654  -15.0893 C   0  0  0  0  0  0  0  0  0  0  0  0
  -25.1175   35.3227  -16.1923 C   0  0  0  0  0  0  0  0  0  0  0  0
  -23.5797   28.3826  -17.5235 H   0  0  0  0  0  0  0  0  0  0  0  0
  -27.0280   33.3087  -18.1263 H   0  0  0  0  0  0  0  0  0  0  0  0
  -23.3189   34.7842  -15.1929 H   0  0  0  0  0  0  0  0  0  0  0  0
  -26.9438   35.6175  -17.2921 H   0  0  0  0  0  0  0  0  0  0  0  0
  -21.4688   33.3793  -15.5697 H   0  0  0  0  0  0  0  0  0  0  0  0
  -22.4189   32.8912  -14.1230 H   0  0  0  0  0  0  0  0  0  0  0  0
  -21.3170   31.7500  -14.9021 H   0  0  0  0  0  0  0  0  0  0  0  0
  -25.0828   36.3456  -15.8245 H   0  0  0  0  0  0  0  0  0  0  0  0
  1  2  2  0  0  0  0
  2  3  1  0  0  0  0
  2  4  1  0  0  0  0
  3  5  1  0  0  0  0
  4  6  1  0  0  0  0
  4  7  2  0  0  0  0
  5  8  2  0  0  0  0
  5  9  1  0  0  0  0
  6 10  3  0  0  0  0
  7  8  1  0  0  0  0
  7 20  1  0  0  0  0
  8 11  1  0  0  0  0
  9 12  2  0  0  0  0
  9 13  1  0  0  0  0
 11 14  2  0  0  0  0
 11 15  1  0  0  0  0
 12 16  1  0  0  0  0
 12 15  1  0  0  0  0
 13 17  2  0  0  0  0
 13 21  1  0  0  0  0
 15 18  1  0  0  0  0
 16 19  2  0  0  0  0
 16 22  1  0  0  0  0
 17 19  1  0  0  0  0
 17 23  1  0  0  0  0
 18 24  1  0  0  0  0
 18 25  1  0  0  0  0
 18 26  1  0  0  0  0
 19 27  1  0  0  0  0
M  END
>  <Column 1>
Cn1c(=O)c2cc(C#N)c(=O)oc2c2ccccc21 ZINC000000031860

>  <Total Molweight>
252.229

>  <cLogP>
0.6112

>  <cLogS>
-2.585

>  <H-Acceptors>
5

>  <H-Donors>
0

>  <Total Surface Area>
183.66

>  <MMFF94 Energy>
33.761

> <Gold.Version>
5.8.1

> <Gold.Id.Protein>
ID|2FQT|mol2

> <Gold.PLP.Fitness>
43.6237

> <Gold.PLP.PLP>
-28.9841

> <Gold.PLP.part.hbond>
-1.0000

> <Gold.PLP.part.metal>
-1.8267

> <Gold.PLP.part.buried>
0.8073

> <Gold.PLP.part.nonpolar>
-28.2079

> <Gold.PLP.part.repulsive>
0.5546

> <Gold.PLP.ligand.clash>
0.0000

> <Gold.PLP.ligand.torsion>
0.0000

> <Gold.PLP.Chemscore.Hbond>
1.0000

> <Gold.PLP.Chemscore.CHOScore>
0.0000

> <Gold.PLP.Chemscore.Metal>
1.9399

> <Gold.Chemscore.Hbonds>
donor molecule, donor type, donor heavy atom, donor atom, acceptor molecule, acceptor atom, score
      P1  H   966  2177       L1     1  1.00
      P1  M  1222  1222       L1     1  1.00
      P1  M  1222  1222       L1     3  0.94

> <Gold.PLP.Chemscore.Internal.Correction>
0.0000

> <Gold.Protein.RotatedTorsions>
[ 1849  621  620  617 ] final  -86.90 input   60.00 | X-H torsion

> <Gold.Protein.ActiveResidues>
 HIS54   GLU57   HIS58   ALA61   PHE62   ILE76   ILE77   ASP78   ILE79   SER80  
 PRO81   GLN125  CYS126  GLY127  GLN128  HIS132  CO701  

> <Gold.Protein.RotatedAtoms>
  -19.6169   27.7789  -13.9401 H   0  0  0  0  0  0  0  0  0  0  0  0  # atno 1849 bound_to 621 
  -18.0522   27.5893  -13.5355 LP  0  0  0  0  0  0  0  0  0  0  0  0  # atno 2431 bound_to 621 
  -18.9074   28.8442  -12.9352 LP  0  0  0  0  0  0  0  0  0  0  0  0  # atno 2432 bound_to 621 

$$$$
Compound 160|DecoysActives|sdf|167|dock3
  -GOLD-   6112412153D 1   1.00000     0.00000

 26 28  0  0  0  0  0  0  0  0  1 V2000
  -27.0486   34.2506  -19.5389 O   0  0  0  0  0  0  0  0  0  0  0  0
  -26.4273   33.9128  -18.5333 C   0  0  0  0  0  0  0  0  0  0  0  0
  -26.2463   34.7426  -17.4344 N   0  0  0  0  0  0  0  0  0  0  0  0
  -25.9017   32.5399  -18.4422 C   0  0  0  0  0  0  0  0  0  0  0  0
  -25.5499   34.3087  -16.2734 N   0  0  0  0  0  0  0  0  0  0  0  0
  -27.0984   35.9206  -17.3355 C   0  0  0  0  0  0  0  0  0  0  0  0
  -25.2974   32.0910  -17.2760 C   0  0  0  0  0  0  0  0  0  0  0  0
  -26.0597   31.6640  -19.5279 C   0  0  0  0  0  0  0  0  0  0  0  0
  -25.0811   33.0077  -16.1436 C   0  0  0  0  0  0  0  0  0  0  0  0
  -24.9930   35.3150  -15.3788 C   0  0  0  0  0  0  0  0  0  0  0  0
  -26.6812   36.8854  -16.2833 C   0  0  0  0  0  0  0  0  0  0  0  0
  -24.8423   30.7657  -17.1913 C   0  0  0  0  0  0  0  0  0  0  0  0
  -25.6073   30.3465  -19.4418 C   0  0  0  0  0  0  0  0  0  0  0  0
  -24.4519   32.6117  -15.1644 O   0  0  0  0  0  0  0  0  0  0  0  0
  -25.7162   36.6145  -15.4012 C   0  0  0  0  0  0  0  0  0  0  0  0
  -24.9995   29.8965  -18.2721 C   0  0  0  0  0  0  0  0  0  0  0  0
  -27.0986   36.4292  -18.3067 H   0  0  0  0  0  0  0  0  0  0  0  0
  -28.1231   35.5792  -17.1473 H   0  0  0  0  0  0  0  0  0  0  0  0
  -26.5418   32.0052  -20.4428 H   0  0  0  0  0  0  0  0  0  0  0  0
  -23.9426   35.4646  -15.6542 H   0  0  0  0  0  0  0  0  0  0  0  0
  -25.0077   34.9157  -14.3578 H   0  0  0  0  0  0  0  0  0  0  0  0
  -27.1909   37.8438  -16.2556 H   0  0  0  0  0  0  0  0  0  0  0  0
  -24.3582   30.4085  -16.2838 H   0  0  0  0  0  0  0  0  0  0  0  0
  -25.7326   29.6723  -20.2862 H   0  0  0  0  0  0  0  0  0  0  0  0
  -25.4358   37.3537  -14.6569 H   0  0  0  0  0  0  0  0  0  0  0  0
  -24.6448   28.8708  -18.2009 H   0  0  0  0  0  0  0  0  0  0  0  0
  1  2  2  0  0  0  0
  2  3  1  0  0  0  0
  2  4  1  0  0  0  0
  3  5  1  0  0  0  0
  3  6  1  0  0  0  0
  4  7  2  0  0  0  0
  4  8  1  0  0  0  0
  5  9  1  0  0  0  0
  5 10  1  0  0  0  0
  6 11  1  0  0  0  0
  6 17  1  0  0  0  0
  6 18  1  0  0  0  0
  7 12  1  0  0  0  0
  7  9  1  0  0  0  0
  8 13  2  0  0  0  0
  8 19  1  0  0  0  0
  9 14  2  0  0  0  0
 10 15  1  0  0  0  0
 10 20  1  0  0  0  0
 10 21  1  0  0  0  0
 11 15  2  0  0  0  0
 11 22  1  0  0  0  0
 12 16  2  0  0  0  0
 12 23  1  0  0  0  0
 13 16  1  0  0  0  0
 13 24  1  0  0  0  0
 15 25  1  0  0  0  0
 16 26  1  0  0  0  0
M  END
>  <Column 1>
O=c1c2ccccc2c(=O)n2n1CC=CC2 ZINC000000031955

>  <Total Molweight>
214.223

>  <cLogP>
-0.0958

>  <cLogS>
-1.672

>  <H-Acceptors>
4

>  <H-Donors>
0

>  <Total Surface Area>
156.38

>  <MMFF94 Energy>
66.516

> <Gold.Version>
5.8.1

> <Gold.Id.Protein>
ID|2FQT|mol2

> <Gold.PLP.Fitness>
38.9732

> <Gold.PLP.PLP>
-38.9732

> <Gold.PLP.part.hbond>
0.0000

> <Gold.PLP.part.metal>
0.0000

> <Gold.PLP.part.buried>
-5.1870

> <Gold.PLP.part.nonpolar>
-38.6560

> <Gold.PLP.part.repulsive>
4.4829

> <Gold.PLP.ligand.clash>
0.0000

> <Gold.PLP.ligand.torsion>
0.0000

> <Gold.PLP.Chemscore.Hbond>
0.0000

> <Gold.PLP.Chemscore.CHOScore>
0.0000

> <Gold.PLP.Chemscore.Metal>
0.0000

> <Gold.PLP.Chemscore.Internal.Correction>
0.0000

> <Gold.Protein.RotatedTorsions>
[ 1849  621  620  617 ] final  -76.70 input   60.00 | X-H torsion

> <Gold.Protein.ActiveResidues>
 HIS54   GLU57   HIS58   ALA61   PHE62   ILE76   ILE77   ASP78   ILE79   SER80  
 PRO81   GLN125  CYS126  GLY127  GLN128  HIS132  CO701  

> <Gold.Protein.RotatedAtoms>
  -19.6918   27.9110  -13.8717 H   0  0  0  0  0  0  0  0  0  0  0  0  # atno 1849 bound_to 621 
  -18.1380   27.4879  -13.6378 LP  0  0  0  0  0  0  0  0  0  0  0  0  # atno 2431 bound_to 621 
  -18.7462   28.8127  -12.9018 LP  0  0  0  0  0  0  0  0  0  0  0  0  # atno 2432 bound_to 621 

$$$$
Compound 161|DecoysActives|sdf|168|dock1
  -GOLD-   6112412153D 1   1.00000     0.00000

 15 15  0  0  0  0  0  0  0  0  1 V2000
  -25.1354   35.5133  -16.3980 Br  0  0  0  0  0  0  0  0  0  0  0  0
  -25.5331   33.9164  -17.2841 C   0  0  0  0  0  0  0  0  0  0  0  0
  -26.2082   34.0281  -18.6189 C   0  0  0  0  0  0  0  0  0  0  0  0
  -25.2607   32.6817  -16.8165 C   0  0  0  0  0  0  0  0  0  0  0  0
  -26.4995   35.1044  -19.1336 O   0  0  0  0  0  0  0  0  0  0  0  0
  -26.4939   32.8521  -19.2572 N   0  0  0  0  0  0  0  0  0  0  0  0
  -25.6014   31.5712  -17.5601 N   0  0  0  0  0  0  0  0  0  0  0  0
  -24.5916   32.3659  -15.5059 C   0  0  0  0  0  0  0  0  0  0  0  0
  -26.2155   31.6095  -18.7782 C   0  0  0  0  0  0  0  0  0  0  0  0
  -26.4948   30.5878  -19.3946 O   0  0  0  0  0  0  0  0  0  0  0  0
  -26.9476   32.9116  -20.1553 H   0  0  0  0  0  0  0  0  0  0  0  0
  -25.3984   30.6396  -17.2125 H   0  0  0  0  0  0  0  0  0  0  0  0
  -23.6692   31.8010  -15.6816 H   0  0  0  0  0  0  0  0  0  0  0  0
  -25.2541   31.7533  -14.8842 H   0  0  0  0  0  0  0  0  0  0  0  0
  -24.3241   33.2490  -14.9214 H   0  0  0  0  0  0  0  0  0  0  0  0
  1  2  1  0  0  0  0
  2  3  1  0  0  0  0
  2  4  2  0  0  0  0
  3  5  2  0  0  0  0
  3  6  1  0  0  0  0
  4  7  1  0  0  0  0
  4  8  1  0  0  0  0
  6  9  1  0  0  0  0
  6 11  1  0  0  0  0
  7  9  1  0  0  0  0
  7 12  1  0  0  0  0
  8 13  1  0  0  0  0
  8 14  1  0  0  0  0
  8 15  1  0  0  0  0
  9 10  2  0  0  0  0
M  END
>  <Column 1>
Cc1[nH]c(=O)[nH]c(=O)c1Br ZINC000000032330

>  <Total Molweight>
205.011

>  <cLogP>
0.1782

>  <cLogS>
-2.341

>  <H-Acceptors>
4

>  <H-Donors>
2

>  <Total Surface Area>
112.23

>  <MMFF94 Energy>
-68.33

> <Gold.Version>
5.8.1

> <Gold.Id.Protein>
ID|2FQT|mol2

> <Gold.PLP.Fitness>
28.4934

> <Gold.PLP.PLP>
-19.8538

> <Gold.PLP.part.hbond>
-1.0000

> <Gold.PLP.part.metal>
-0.9610

> <Gold.PLP.part.buried>
-1.7774

> <Gold.PLP.part.nonpolar>
-15.8767

> <Gold.PLP.part.repulsive>
0.3648

> <Gold.PLP.ligand.clash>
0.0000

> <Gold.PLP.ligand.torsion>
0.0000

> <Gold.PLP.Chemscore.Hbond>
1.0000

> <Gold.PLP.Chemscore.CHOScore>
0.0000

> <Gold.PLP.Chemscore.Metal>
0.9399

> <Gold.Chemscore.Hbonds>
donor molecule, donor type, donor heavy atom, donor atom, acceptor molecule, acceptor atom, score
      L1  H     6    11       P1   954  1.00
      P1  M  1222  1222       L1    10  0.94

> <Gold.PLP.Chemscore.Internal.Correction>
0.0000

> <Gold.Protein.RotatedTorsions>
[ 1849  621  620  617 ] final  178.86 input   60.00 | X-H torsion

> <Gold.Protein.ActiveResidues>
 HIS54   GLU57   HIS58   ALA61   PHE62   ILE76   ILE77   ASP78   ILE79   SER80  
 PRO81   GLN125  CYS126  GLY127  GLN128  HIS132  CO701  

> <Gold.Protein.RotatedAtoms>
  -18.3161   27.3732  -13.7786 H   0  0  0  0  0  0  0  0  0  0  0  0  # atno 1849 bound_to 621 
  -18.5090   28.7200  -12.8857 LP  0  0  0  0  0  0  0  0  0  0  0  0  # atno 2431 bound_to 621 
  -19.7606   28.1221  -13.7476 LP  0  0  0  0  0  0  0  0  0  0  0  0  # atno 2432 bound_to 621 

$$$$
Compound 162|DecoysActives|sdf|169|dock2
  -GOLD-   6112412153D 1   1.00000     0.00000

 23 24  0  0  0  0  0  0  0  0  1 V2000
  -19.8811   29.8140  -14.7074 O   0  0  0  0  0  0  0  0  0  0  0  0
  -20.8187   30.7167  -15.1268 C   0  0  0  0  0  0  0  0  0  0  0  0
  -20.6358   32.0512  -14.7700 C   0  0  0  0  0  0  0  0  0  0  0  0
  -21.9205   30.3348  -15.8822 C   0  0  0  0  0  0  0  0  0  0  0  0
  -19.5500   32.4156  -14.0277 O   0  0  0  0  0  0  0  0  0  0  0  0
  -21.5445   33.0256  -15.1584 C   0  0  0  0  0  0  0  0  0  0  0  0
  -22.8412   31.3142  -16.2771 C   0  0  0  0  0  0  0  0  0  0  0  0
  -22.6566   32.6568  -15.9179 C   0  0  0  0  0  0  0  0  0  0  0  0
  -24.0292   30.9519  -17.0827 C   0  0  0  0  0  0  0  0  0  0  0  0
  -24.1191   29.7970  -17.6562 N   0  0  0  0  0  0  0  0  0  0  0  0
  -25.2461   29.5346  -18.3834 N   0  0  0  0  0  0  0  0  0  0  0  0
  -26.1826   28.6012  -18.0184 C   0  0  0  0  0  0  0  0  0  0  0  0
  -25.7379   30.0510  -19.5556 C   0  0  0  0  0  0  0  0  0  0  0  0
  -27.1599   28.5544  -18.8940 N   0  0  0  0  0  0  0  0  0  0  0  0
  -26.8776   29.4758  -19.8713 N   0  0  0  0  0  0  0  0  0  0  0  0
  -19.0312   30.2777  -14.6063 H   0  0  0  0  0  0  0  0  0  0  0  0
  -22.0717   29.2978  -16.1651 H   0  0  0  0  0  0  0  0  0  0  0  0
  -18.7873   32.0088  -14.4862 H   0  0  0  0  0  0  0  0  0  0  0  0
  -21.3862   34.0611  -14.8714 H   0  0  0  0  0  0  0  0  0  0  0  0
  -23.3659   33.4230  -16.2198 H   0  0  0  0  0  0  0  0  0  0  0  0
  -24.8070   31.7319  -17.1476 H   0  0  0  0  0  0  0  0  0  0  0  0
  -26.0895   28.0065  -17.1231 H   0  0  0  0  0  0  0  0  0  0  0  0
  -25.2547   30.8208  -20.1345 H   0  0  0  0  0  0  0  0  0  0  0  0
  1  2  1  0  0  0  0
  1 16  1  0  0  0  0
  2  3  2  0  0  0  0
  2  4  1  0  0  0  0
  3  5  1  0  0  0  0
  3  6  1  0  0  0  0
  4  7  2  0  0  0  0
  4 17  1  0  0  0  0
  5 18  1  0  0  0  0
  6  8  2  0  0  0  0
  6 19  1  0  0  0  0
  7  9  1  0  0  0  0
  7  8  1  0  0  0  0
  8 20  1  0  0  0  0
  9 10  2  0  0  0  0
  9 21  1  0  0  0  0
 10 11  1  0  0  0  0
 11 12  1  0  0  0  0
 11 13  1  0  0  0  0
 12 14  2  0  0  0  0
 12 22  1  0  0  0  0
 13 15  2  0  0  0  0
 13 23  1  0  0  0  0
 14 15  1  0  0  0  0
M  END
>  <Column 1>
Oc1ccc(/C=N/n2cnnc2)cc1O ZINC000000032460

>  <Total Molweight>
204.189

>  <cLogP>
0.5369

>  <cLogS>
-3.718

>  <H-Acceptors>
6

>  <H-Donors>
2

>  <Total Surface Area>
157.2

>  <MMFF94 Energy>
29.022

> <Gold.Version>
5.8.1

> <Gold.Id.Protein>
ID|2FQT|mol2

> <Gold.PLP.Fitness>
50.7352

> <Gold.PLP.PLP>
-25.5990

> <Gold.PLP.part.hbond>
-6.3852

> <Gold.PLP.part.metal>
-1.9668

> <Gold.PLP.part.buried>
-1.4759

> <Gold.PLP.part.nonpolar>
-17.5190

> <Gold.PLP.part.repulsive>
0.2008

> <Gold.PLP.ligand.clash>
0.0000

> <Gold.PLP.ligand.torsion>
0.6820

> <Gold.PLP.Chemscore.Hbond>
3.8824

> <Gold.PLP.Chemscore.CHOScore>
0.9775

> <Gold.PLP.Chemscore.Metal>
1.9865

> <Gold.Chemscore.Hbonds>
donor molecule, donor type, donor heavy atom, donor atom, acceptor molecule, acceptor atom, score
      L1  H     1    16       P1   606  1.00
      L1  H     5    18       P1   606  1.00
      P1  H   608  1834       L1     5  0.21
      P1  H   621  1849       L1     1  0.67
      P1  H   966  2177       L1    15  1.00
      L1  C    12    22       P1   426  0.98
      P1  M  1222  1222       L1    14  1.00
      P1  M  1222  1222       L1    15  0.99

> <Gold.PLP.Chemscore.Internal.Correction>
0.0010

> <Gold.Protein.RotatedTorsions>
[ 1849  621  620  617 ] final  -33.54 input   60.00 | X-H torsion

> <Gold.Protein.ActiveResidues>
 HIS54   GLU57   HIS58   ALA61   PHE62   ILE76   ILE77   ASP78   ILE79   SER80  
 PRO81   GLN125  CYS126  GLY127  GLN128  HIS132  CO701  

> <Gold.Protein.RotatedAtoms>
  -19.7056   28.4734  -13.4744 H   0  0  0  0  0  0  0  0  0  0  0  0  # atno 1849 bound_to 621 
  -18.7090   27.2895  -13.9778 LP  0  0  0  0  0  0  0  0  0  0  0  0  # atno 2431 bound_to 621 
  -18.1614   28.4447  -12.9618 LP  0  0  0  0  0  0  0  0  0  0  0  0  # atno 2432 bound_to 621 

$$$$
Compound 163|DecoysActives|sdf|170|dock3
  -GOLD-   6112412153D 1   1.00000     0.00000

 23 25  0  0  0  0  0  0  0  0  1 V2000
  -24.2593   31.0695  -16.6566 N   0  0  0  0  0  0  0  0  0  0  0  0
  -25.2003   30.9595  -17.6183 N   0  0  0  0  0  0  0  0  0  0  0  0
  -24.1206   32.2622  -16.1277 C   0  0  0  0  0  0  0  0  0  0  0  0
  -25.4629   29.8091  -18.2552 N   0  0  0  0  0  0  0  0  0  0  0  0
  -26.0236   31.9391  -18.1058 C   0  0  0  0  0  0  0  0  0  0  0  0
  -23.1712   32.4237  -15.1405 N   0  0  0  0  0  0  0  0  0  0  0  0
  -24.9552   33.4625  -16.5536 C   0  0  0  0  0  0  0  0  0  0  0  0
  -26.4341   30.0971  -19.1157 N   0  0  0  0  0  0  0  0  0  0  0  0
  -26.7969   31.4240  -19.0358 N   0  0  0  0  0  0  0  0  0  0  0  0
  -25.9145   33.2654  -17.5620 C   0  0  0  0  0  0  0  0  0  0  0  0
  -22.3290   31.3475  -14.6661 C   0  0  0  0  0  0  0  0  0  0  0  0
  -24.8093   34.7356  -15.9912 C   0  0  0  0  0  0  0  0  0  0  0  0
  -26.7157   34.3219  -18.0025 C   0  0  0  0  0  0  0  0  0  0  0  0
  -25.6131   35.7916  -16.4345 C   0  0  0  0  0  0  0  0  0  0  0  0
  -26.5625   35.5859  -17.4359 C   0  0  0  0  0  0  0  0  0  0  0  0
  -23.0182   33.3170  -14.6960 H   0  0  0  0  0  0  0  0  0  0  0  0
  -21.7135   30.9480  -15.4780 H   0  0  0  0  0  0  0  0  0  0  0  0
  -21.6590   31.7189  -13.8847 H   0  0  0  0  0  0  0  0  0  0  0  0
  -22.9323   30.5404  -14.2390 H   0  0  0  0  0  0  0  0  0  0  0  0
  -24.0858   34.9419  -15.2115 H   0  0  0  0  0  0  0  0  0  0  0  0
  -27.4571   34.1641  -18.7837 H   0  0  0  0  0  0  0  0  0  0  0  0
  -25.4987   36.7811  -15.9962 H   0  0  0  0  0  0  0  0  0  0  0  0
  -27.1840   36.4117  -17.7755 H   0  0  0  0  0  0  0  0  0  0  0  0
  1  2  1  0  0  0  0
  1  3  2  0  0  0  0
  2  4  1  0  0  0  0
  2  5  1  0  0  0  0
  3  6  1  0  0  0  0
  3  7  1  0  0  0  0
  4  8  2  0  0  0  0
  5  9  2  0  0  0  0
  5 10  1  0  0  0  0
  6 11  1  0  0  0  0
  6 16  1  0  0  0  0
  7 12  1  0  0  0  0
  7 10  2  0  0  0  0
  8  9  1  0  0  0  0
 10 13  1  0  0  0  0
 11 17  1  0  0  0  0
 11 18  1  0  0  0  0
 11 19  1  0  0  0  0
 12 14  2  0  0  0  0
 12 20  1  0  0  0  0
 13 15  2  0  0  0  0
 13 21  1  0  0  0  0
 14 15  1  0  0  0  0
 14 22  1  0  0  0  0
 15 23  1  0  0  0  0
M  END
>  <Column 1>
CNc1nn2nnnc2c2ccccc12 ZINC000000032545

>  <Total Molweight>
200.205

>  <cLogP>
0.7746

>  <cLogS>
-4.967

>  <H-Acceptors>
6

>  <H-Donors>
1

>  <Total Surface Area>
151.87

>  <MMFF94 Energy>
19.402

> <Gold.Version>
5.8.1

> <Gold.Id.Protein>
ID|2FQT|mol2

> <Gold.PLP.Fitness>
41.5197

> <Gold.PLP.PLP>
-29.7119

> <Gold.PLP.part.hbond>
0.0000

> <Gold.PLP.part.metal>
-2.0000

> <Gold.PLP.part.buried>
-5.1403

> <Gold.PLP.part.nonpolar>
-24.0856

> <Gold.PLP.part.repulsive>
0.3529

> <Gold.PLP.ligand.clash>
0.0000

> <Gold.PLP.ligand.torsion>
0.0000

> <Gold.PLP.Chemscore.Hbond>
0.0000

> <Gold.PLP.Chemscore.CHOScore>
0.0000

> <Gold.PLP.Chemscore.Metal>
1.9680

> <Gold.Chemscore.Hbonds>
donor molecule, donor type, donor heavy atom, donor atom, acceptor molecule, acceptor atom, score
      P1  M  1222  1222       L1     8  1.00
      P1  M  1222  1222       L1     9  0.97

> <Gold.PLP.Chemscore.Internal.Correction>
0.0000

> <Gold.Protein.RotatedTorsions>
[ 1849  621  620  617 ] final  108.06 input   60.00 | X-H torsion

> <Gold.Protein.ActiveResidues>
 HIS54   GLU57   HIS58   ALA61   PHE62   ILE76   ILE77   ASP78   ILE79   SER80  
 PRO81   GLN125  CYS126  GLY127  GLN128  HIS132  CO701  

> <Gold.Protein.RotatedAtoms>
  -18.0042   28.1641  -13.1049 H   0  0  0  0  0  0  0  0  0  0  0  0  # atno 1849 bound_to 621 
  -19.5349   28.6944  -13.2601 LP  0  0  0  0  0  0  0  0  0  0  0  0  # atno 2431 bound_to 621 
  -19.0488   27.3513  -14.0516 LP  0  0  0  0  0  0  0  0  0  0  0  0  # atno 2432 bound_to 621 

$$$$
Compound 164|DecoysActives|sdf|171|dock13
  -GOLD-   6112412153D 1   1.00000     0.00000

 44 45  0  0  0  0  0  0  0  0  1 V2000
  -26.1823   34.5206  -18.6750 O   0  0  0  0  0  0  0  0  0  0  0  0
  -25.9637   33.3260  -18.4767 C   0  0  0  0  0  0  0  0  0  0  0  0
  -25.1570   32.8372  -17.4502 N   0  0  0  0  0  0  0  0  0  0  0  0
  -26.5229   32.3950  -19.3009 N   0  0  0  0  0  0  0  0  0  0  0  0
  -24.8819   31.4829  -17.2937 C   0  0  0  0  0  0  0  0  0  0  0  0
  -24.5665   33.8388  -16.5571 C   0  0  0  0  0  0  0  0  0  0  0  0
  -26.3361   31.0544  -19.2137 C   0  0  0  0  0  0  0  0  0  0  0  0
  -24.0516   31.0078  -16.3154 N   0  0  0  0  0  0  0  0  0  0  0  0
  -25.4475   30.6056  -18.1377 C   0  0  0  0  0  0  0  0  0  0  0  0
  -25.6251   34.5086  -15.6735 C   0  0  0  0  0  0  0  0  0  0  0  0
  -26.8601   30.2538  -19.9789 O   0  0  0  0  0  0  0  0  0  0  0  0
  -25.9859   35.8848  -16.1764 C   0  0  0  0  0  0  0  0  0  0  0  0
  -24.9792   36.8293  -16.4300 C   0  0  0  0  0  0  0  0  0  0  0  0
  -27.3185   36.2297  -16.4168 C   0  0  0  0  0  0  0  0  0  0  0  0
  -25.2961   38.1038  -16.9160 C   0  0  0  0  0  0  0  0  0  0  0  0
  -27.6451   37.4997  -16.8997 C   0  0  0  0  0  0  0  0  0  0  0  0
  -24.3721   39.0817  -17.1912 O   0  0  0  0  0  0  0  0  0  0  0  0
  -26.6433   38.4425  -17.1522 C   0  0  0  0  0  0  0  0  0  0  0  0
  -22.9971   38.7801  -16.9724 C   0  0  0  0  0  0  0  0  0  0  0  0
  -26.8715   39.7098  -17.6291 O   0  0  0  0  0  0  0  0  0  0  0  0
  -22.1715   39.9110  -17.5598 C   0  0  0  0  0  0  0  0  0  0  0  0
  -28.2230   40.1235  -17.8039 C   0  0  0  0  0  0  0  0  0  0  0  0
  -28.6725   39.6821  -19.1854 C   0  0  0  0  0  0  0  0  0  0  0  0
  -27.1173   32.7371  -20.0391 H   0  0  0  0  0  0  0  0  0  0  0  0
  -23.8173   33.3502  -15.9205 H   0  0  0  0  0  0  0  0  0  0  0  0
  -24.0009   34.5752  -17.1399 H   0  0  0  0  0  0  0  0  0  0  0  0
  -23.6006   31.6293  -15.6606 H   0  0  0  0  0  0  0  0  0  0  0  0
  -23.8900   30.0121  -16.2205 H   0  0  0  0  0  0  0  0  0  0  0  0
  -25.2824   29.5379  -18.0784 H   0  0  0  0  0  0  0  0  0  0  0  0
  -26.5269   33.8857  -15.6222 H   0  0  0  0  0  0  0  0  0  0  0  0
  -25.2653   34.5871  -14.6394 H   0  0  0  0  0  0  0  0  0  0  0  0
  -23.9489   36.5433  -16.2388 H   0  0  0  0  0  0  0  0  0  0  0  0
  -28.1172   35.5162  -16.2268 H   0  0  0  0  0  0  0  0  0  0  0  0
  -28.6931   37.7223  -17.0692 H   0  0  0  0  0  0  0  0  0  0  0  0
  -22.7278   37.8440  -17.4749 H   0  0  0  0  0  0  0  0  0  0  0  0
  -22.7889   38.7071  -15.8989 H   0  0  0  0  0  0  0  0  0  0  0  0
  -21.1026   39.7280  -17.4179 H   0  0  0  0  0  0  0  0  0  0  0  0
  -22.3729   40.0195  -18.6307 H   0  0  0  0  0  0  0  0  0  0  0  0
  -22.4328   40.8643  -17.0882 H   0  0  0  0  0  0  0  0  0  0  0  0
  -28.3003   41.2147  -17.7355 H   0  0  0  0  0  0  0  0  0  0  0  0
  -28.8657   39.6513  -17.0521 H   0  0  0  0  0  0  0  0  0  0  0  0
  -29.7094   39.9763  -19.3709 H   0  0  0  0  0  0  0  0  0  0  0  0
  -28.0353   40.1253  -19.9580 H   0  0  0  0  0  0  0  0  0  0  0  0
  -28.5894   38.5950  -19.2889 H   0  0  0  0  0  0  0  0  0  0  0  0
  1  2  2  0  0  0  0
  2  3  1  0  0  0  0
  2  4  1  0  0  0  0
  3  5  1  0  0  0  0
  3  6  1  0  0  0  0
  4  7  1  0  0  0  0
  4 24  1  0  0  0  0
  5  8  1  0  0  0  0
  5  9  2  0  0  0  0
  6 10  1  0  0  0  0
  6 25  1  0  0  0  0
  6 26  1  0  0  0  0
  7 11  2  0  0  0  0
  7  9  1  0  0  0  0
  8 27  1  0  0  0  0
  8 28  1  0  0  0  0
  9 29  1  0  0  0  0
 10 12  1  0  0  0  0
 10 30  1  0  0  0  0
 10 31  1  0  0  0  0
 12 13  2  0  0  0  0
 12 14  1  0  0  0  0
 13 15  1  0  0  0  0
 13 32  1  0  0  0  0
 14 16  2  0  0  0  0
 14 33  1  0  0  0  0
 15 17  1  0  0  0  0
 15 18  2  0  0  0  0
 16 18  1  0  0  0  0
 16 34  1  0  0  0  0
 17 19  1  0  0  0  0
 18 20  1  0  0  0  0
 19 21  1  0  0  0  0
 19 35  1  0  0  0  0
 19 36  1  0  0  0  0
 20 22  1  0  0  0  0
 21 37  1  0  0  0  0
 21 38  1  0  0  0  0
 21 39  1  0  0  0  0
 22 23  1  0  0  0  0
 22 40  1  0  0  0  0
 22 41  1  0  0  0  0
 23 42  1  0  0  0  0
 23 43  1  0  0  0  0
 23 44  1  0  0  0  0
M  END
>  <Column 1>
CCOc1ccc(CCn2c(N)cc(=O)[nH]c2=O)cc1OCC ZINC000000032782

>  <Total Molweight>
319.36

>  <cLogP>
1.5248

>  <cLogS>
-4.028

>  <H-Acceptors>
7

>  <H-Donors>
2

>  <Total Surface Area>
249.81

>  <MMFF94 Energy>
-80.484

> <Gold.Version>
5.8.1

> <Gold.Id.Protein>
ID|2FQT|mol2

> <Gold.PLP.Fitness>
60.6555

> <Gold.PLP.PLP>
-50.1928

> <Gold.PLP.part.hbond>
-1.9917

> <Gold.PLP.part.metal>
-0.9626

> <Gold.PLP.part.buried>
-2.8056

> <Gold.PLP.part.nonpolar>
-45.8014

> <Gold.PLP.part.repulsive>
0.2837

> <Gold.PLP.ligand.clash>
0.0000

> <Gold.PLP.ligand.torsion>
0.6149

> <Gold.PLP.Chemscore.Hbond>
1.9913

> <Gold.PLP.Chemscore.CHOScore>
0.0000

> <Gold.PLP.Chemscore.Metal>
0.9399

> <Gold.Chemscore.Hbonds>
donor molecule, donor type, donor heavy atom, donor atom, acceptor molecule, acceptor atom, score
      L1  H     4    24       P1   954  0.99
      P1  H   966  2177       L1    11  1.00
      P1  M  1222  1222       L1    11  0.94

> <Gold.PLP.Chemscore.Internal.Correction>
0.0792

> <Gold.Protein.RotatedTorsions>
[ 1849  621  620  617 ] final  103.49 input   60.00 | X-H torsion

> <Gold.Protein.ActiveResidues>
 HIS54   GLU57   HIS58   ALA61   PHE62   ILE76   ILE77   ASP78   ILE79   SER80  
 PRO81   GLN125  CYS126  GLY127  GLN128  HIS132  CO701  

> <Gold.Protein.RotatedAtoms>
  -18.0291   28.2251  -13.0700 H   0  0  0  0  0  0  0  0  0  0  0  0  # atno 1849 bound_to 621 
  -19.5810   28.6550  -13.3043 LP  0  0  0  0  0  0  0  0  0  0  0  0  # atno 2431 bound_to 621 
  -18.9776   27.3293  -14.0426 LP  0  0  0  0  0  0  0  0  0  0  0  0  # atno 2432 bound_to 621 

$$$$
Compound 165|DecoysActives|sdf|172|dock2
  -GOLD-   6112412153D 1   1.00000     0.00000

 43 46  0  0  0  0  0  0  0  0  1 V2000
  -24.3596   28.5813  -17.5015 O   0  0  0  0  0  0  0  0  0  0  0  0
  -24.9519   29.5428  -17.9648 C   0  0  0  0  0  0  0  0  0  0  0  0
  -24.8429   30.8940  -17.6710 N   0  0  0  0  0  0  0  0  0  0  0  0
  -25.9404   29.4657  -18.9487 N   0  0  0  0  0  0  0  0  0  0  0  0
  -24.1133   31.6562  -16.7898 C   0  0  0  0  0  0  0  0  0  0  0  0
  -25.7698   31.4942  -18.4330 C   0  0  0  0  0  0  0  0  0  0  0  0
  -26.4458   30.7077  -19.2214 N   0  0  0  0  0  0  0  0  0  0  0  0
  -24.3658   32.9276  -16.7051 N   0  0  0  0  0  0  0  0  0  0  0  0
  -23.1372   31.0971  -15.9843 N   0  0  0  0  0  0  0  0  0  0  0  0
  -25.9907   32.8237  -18.3747 N   0  0  0  0  0  0  0  0  0  0  0  0
  -25.3041   33.5116  -17.5156 C   0  0  0  0  0  0  0  0  0  0  0  0
  -22.8157   31.6851  -14.6825 C   0  0  0  0  0  0  0  0  0  0  0  0
  -22.1270   30.1685  -16.4942 C   0  0  0  0  0  0  0  0  0  0  0  0
  -25.4978   34.8737  -17.4020 N   0  0  0  0  0  0  0  0  0  0  0  0
  -21.4963   32.4465  -14.7630 C   0  0  0  0  0  0  0  0  0  0  0  0
  -20.7758   30.8815  -16.5957 C   0  0  0  0  0  0  0  0  0  0  0  0
  -24.5446   35.7433  -16.7168 C   0  0  0  0  0  0  0  0  0  0  0  0
  -26.7438   35.5320  -17.7819 C   0  0  0  0  0  0  0  0  0  0  0  0
  -20.3797   31.5388  -15.2751 C   0  0  0  0  0  0  0  0  0  0  0  0
  -25.1794   36.2555  -15.4235 C   0  0  0  0  0  0  0  0  0  0  0  0
  -27.4450   36.0360  -16.5203 C   0  0  0  0  0  0  0  0  0  0  0  0
  -26.5215   36.9372  -15.6982 C   0  0  0  0  0  0  0  0  0  0  0  0
  -26.2835   28.6241  -19.3914 H   0  0  0  0  0  0  0  0  0  0  0  0
  -22.7371   30.8819  -13.9393 H   0  0  0  0  0  0  0  0  0  0  0  0
  -23.6144   32.3492  -14.3323 H   0  0  0  0  0  0  0  0  0  0  0  0
  -22.0521   29.3042  -15.8241 H   0  0  0  0  0  0  0  0  0  0  0  0
  -22.3768   29.7950  -17.4910 H   0  0  0  0  0  0  0  0  0  0  0  0
  -21.2314   32.8393  -13.7753 H   0  0  0  0  0  0  0  0  0  0  0  0
  -21.6034   33.3060  -15.4364 H   0  0  0  0  0  0  0  0  0  0  0  0
  -20.0025   30.1683  -16.9021 H   0  0  0  0  0  0  0  0  0  0  0  0
  -20.8305   31.6519  -17.3754 H   0  0  0  0  0  0  0  0  0  0  0  0
  -24.2922   36.5881  -17.3694 H   0  0  0  0  0  0  0  0  0  0  0  0
  -23.5996   35.2403  -16.4866 H   0  0  0  0  0  0  0  0  0  0  0  0
  -26.5188   36.3757  -18.4459 H   0  0  0  0  0  0  0  0  0  0  0  0
  -27.4210   34.8770  -18.3397 H   0  0  0  0  0  0  0  0  0  0  0  0
  -20.1676   30.7625  -14.5298 H   0  0  0  0  0  0  0  0  0  0  0  0
  -19.4593   32.1180  -15.4079 H   0  0  0  0  0  0  0  0  0  0  0  0
  -24.5011   36.9586  -14.9279 H   0  0  0  0  0  0  0  0  0  0  0  0
  -25.3366   35.4156  -14.7352 H   0  0  0  0  0  0  0  0  0  0  0  0
  -28.3529   36.5854  -16.7924 H   0  0  0  0  0  0  0  0  0  0  0  0
  -27.7542   35.1807  -15.9066 H   0  0  0  0  0  0  0  0  0  0  0  0
  -26.3478   37.8726  -16.2442 H   0  0  0  0  0  0  0  0  0  0  0  0
  -27.0054   37.2025  -14.7518 H   0  0  0  0  0  0  0  0  0  0  0  0
  1  2  2  0  0  0  0
  2  3  1  0  0  0  0
  2  4  1  0  0  0  0
  3  5  1  0  0  0  0
  3  6  1  0  0  0  0
  4  7  1  0  0  0  0
  4 23  1  0  0  0  0
  5  8  2  0  0  0  0
  5  9  1  0  0  0  0
  6 10  1  0  0  0  0
  6  7  2  0  0  0  0
  8 11  1  0  0  0  0
  9 12  1  0  0  0  0
  9 13  1  0  0  0  0
 10 11  2  0  0  0  0
 11 14  1  0  0  0  0
 12 15  1  0  0  0  0
 12 24  1  0  0  0  0
 12 25  1  0  0  0  0
 13 16  1  0  0  0  0
 13 26  1  0  0  0  0
 13 27  1  0  0  0  0
 14 17  1  0  0  0  0
 14 18  1  0  0  0  0
 15 19  1  0  0  0  0
 15 28  1  0  0  0  0
 15 29  1  0  0  0  0
 16 19  1  0  0  0  0
 16 30  1  0  0  0  0
 16 31  1  0  0  0  0
 17 20  1  0  0  0  0
 17 32  1  0  0  0  0
 17 33  1  0  0  0  0
 18 21  1  0  0  0  0
 18 34  1  0  0  0  0
 18 35  1  0  0  0  0
 19 36  1  0  0  0  0
 19 37  1  0  0  0  0
 20 22  1  0  0  0  0
 20 38  1  0  0  0  0
 20 39  1  0  0  0  0
 21 22  1  0  0  0  0
 21 40  1  0  0  0  0
 21 41  1  0  0  0  0
 22 42  1  0  0  0  0
 22 43  1  0  0  0  0
M  END
>  <Column 1>
O=c1[nH]nc2nc(N3CCCCC3)nc(N3CCCCC3)n12 ZINC000000032938

>  <Total Molweight>
303.369

>  <cLogP>
1.9418

>  <cLogS>
-4.002

>  <H-Acceptors>
8

>  <H-Donors>
1

>  <Total Surface Area>
226.12

>  <MMFF94 Energy>
-171.9

> <Gold.Version>
5.8.1

> <Gold.Id.Protein>
ID|2FQT|mol2

> <Gold.PLP.Fitness>
44.7957

> <Gold.PLP.PLP>
-39.9100

> <Gold.PLP.part.hbond>
0.0000

> <Gold.PLP.part.metal>
-0.9705

> <Gold.PLP.part.buried>
-5.9583

> <Gold.PLP.part.nonpolar>
-36.7133

> <Gold.PLP.part.repulsive>
2.3603

> <Gold.PLP.ligand.clash>
0.0000

> <Gold.PLP.ligand.torsion>
0.7420

> <Gold.PLP.Chemscore.Hbond>
0.0000

> <Gold.PLP.Chemscore.CHOScore>
0.0000

> <Gold.PLP.Chemscore.Metal>
0.9399

> <Gold.Chemscore.Hbonds>
donor molecule, donor type, donor heavy atom, donor atom, acceptor molecule, acceptor atom, score
      P1  M  1222  1222       L1     7  0.94

> <Gold.PLP.Chemscore.Internal.Correction>
0.7301

> <Gold.Protein.RotatedTorsions>
[ 1849  621  620  617 ] final  -97.80 input   60.00 | X-H torsion

> <Gold.Protein.ActiveResidues>
 HIS54   GLU57   HIS58   ALA61   PHE62   ILE76   ILE77   ASP78   ILE79   SER80  
 PRO81   GLN125  CYS126  GLY127  GLN128  HIS132  CO701  

> <Gold.Protein.RotatedAtoms>
  -19.5106   27.6481  -13.9967 H   0  0  0  0  0  0  0  0  0  0  0  0  # atno 1849 bound_to 621 
  -17.9888   27.7143  -13.4241 LP  0  0  0  0  0  0  0  0  0  0  0  0  # atno 2431 bound_to 621 
  -19.0779   28.8509  -12.9896 LP  0  0  0  0  0  0  0  0  0  0  0  0  # atno 2432 bound_to 621 

$$$$
Compound 166|DecoysActives|sdf|173|dock1
  -GOLD-   6112412153D 1   1.00000     0.00000

 27 28  0  0  0  0  0  0  0  0  1 V2000
  -22.7429   35.4512  -17.1405 O   0  0  0  0  0  0  0  0  0  0  0  0
  -23.3646   34.5245  -16.6181 C   0  0  0  0  0  0  0  0  0  0  0  0
  -22.6884   33.3783  -16.3163 N   0  0  0  0  0  0  0  0  0  0  0  0
  -24.8704   34.6005  -16.3309 C   0  0  0  0  0  0  0  0  0  0  0  0
  -23.2014   32.2640  -15.5615 C   0  0  0  0  0  0  0  0  0  0  0  0
  -25.6471   34.4361  -17.6451 C   0  0  0  0  0  0  0  0  0  0  0  0
  -25.3496   33.4887  -15.3642 C   0  0  0  0  0  0  0  0  0  0  0  0
  -25.1520   35.9891  -15.7012 C   0  0  0  0  0  0  0  0  0  0  0  0
  -24.7069   32.1390  -15.6661 C   0  0  0  0  0  0  0  0  0  0  0  0
  -25.3407   33.6112  -18.5059 O   0  0  0  0  0  0  0  0  0  0  0  0
  -26.8024   35.1496  -17.8152 N   0  0  0  0  0  0  0  0  0  0  0  0
  -26.6413   36.3062  -15.6481 C   0  0  0  0  0  0  0  0  0  0  0  0
  -27.1935   36.3144  -17.0593 C   0  0  0  0  0  0  0  0  0  0  0  0
  -21.7071   33.3974  -16.5685 H   0  0  0  0  0  0  0  0  0  0  0  0
  -22.7089   31.3565  -15.9239 H   0  0  0  0  0  0  0  0  0  0  0  0
  -22.8988   32.4175  -14.5199 H   0  0  0  0  0  0  0  0  0  0  0  0
  -25.1073   33.7609  -14.3285 H   0  0  0  0  0  0  0  0  0  0  0  0
  -26.4393   33.3713  -15.4117 H   0  0  0  0  0  0  0  0  0  0  0  0
  -24.6547   36.7821  -16.2758 H   0  0  0  0  0  0  0  0  0  0  0  0
  -24.7276   36.0398  -14.6906 H   0  0  0  0  0  0  0  0  0  0  0  0
  -24.9901   31.7971  -16.6675 H   0  0  0  0  0  0  0  0  0  0  0  0
  -25.0671   31.3840  -14.9585 H   0  0  0  0  0  0  0  0  0  0  0  0
  -27.2779   34.9514  -18.6884 H   0  0  0  0  0  0  0  0  0  0  0  0
  -26.8043   37.2832  -15.1794 H   0  0  0  0  0  0  0  0  0  0  0  0
  -27.1696   35.5671  -15.0359 H   0  0  0  0  0  0  0  0  0  0  0  0
  -28.2869   36.3598  -17.0510 H   0  0  0  0  0  0  0  0  0  0  0  0
  -26.8251   37.1878  -17.6088 H   0  0  0  0  0  0  0  0  0  0  0  0
  1  2  2  0  0  0  0
  2  3  1  0  0  0  0
  2  4  1  0  0  0  0
  3  5  1  0  0  0  0
  3 14  1  0  0  0  0
  4  6  1  0  0  0  0
  4  7  1  0  0  0  0
  4  8  1  0  0  0  0
  5  9  1  0  0  0  0
  5 15  1  0  0  0  0
  5 16  1  0  0  0  0
  6 10  2  0  0  0  0
  6 11  1  0  0  0  0
  7  9  1  0  0  0  0
  7 17  1  0  0  0  0
  7 18  1  0  0  0  0
  8 12  1  0  0  0  0
  8 19  1  0  0  0  0
  8 20  1  0  0  0  0
  9 21  1  0  0  0  0
  9 22  1  0  0  0  0
 11 13  1  0  0  0  0
 11 23  1  0  0  0  0
 12 13  1  0  0  0  0
 12 24  1  0  0  0  0
 12 25  1  0  0  0  0
 13 26  1  0  0  0  0
 13 27  1  0  0  0  0
M  END
>  <Column 1>
O=C1NCCCC12CCCNC2=O ZINC000000032975

>  <Total Molweight>
182.222

>  <cLogP>
-0.3618

>  <cLogS>
-1.297

>  <H-Acceptors>
4

>  <H-Donors>
2

>  <Total Surface Area>
137.89

>  <MMFF94 Energy>
-28.273

> <Gold.Version>
5.8.1

> <Gold.Id.Protein>
ID|2FQT|mol2

> <Gold.PLP.Fitness>
29.5178

> <Gold.PLP.PLP>
-29.5178

> <Gold.PLP.part.hbond>
0.0000

> <Gold.PLP.part.metal>
0.0000

> <Gold.PLP.part.buried>
-2.7514

> <Gold.PLP.part.nonpolar>
-26.5873

> <Gold.PLP.part.repulsive>
0.1232

> <Gold.PLP.ligand.clash>
0.0000

> <Gold.PLP.ligand.torsion>
0.0000

> <Gold.PLP.Chemscore.Hbond>
0.0000

> <Gold.PLP.Chemscore.CHOScore>
0.0000

> <Gold.PLP.Chemscore.Metal>
0.0000

> <Gold.PLP.Chemscore.Internal.Correction>
0.0000

> <Gold.Protein.RotatedTorsions>
[ 1849  621  620  617 ] final   45.05 input   60.00 | X-H torsion

> <Gold.Protein.ActiveResidues>
 HIS54   GLU57   HIS58   ALA61   PHE62   ILE76   ILE77   ASP78   ILE79   SER80  
 PRO81   GLN125  CYS126  GLY127  GLN128  HIS132  CO701  

> <Gold.Protein.RotatedAtoms>
  -18.7204   28.7985  -12.9000 H   0  0  0  0  0  0  0  0  0  0  0  0  # atno 1849 bound_to 621 
  -19.7074   27.9345  -13.8632 LP  0  0  0  0  0  0  0  0  0  0  0  0  # atno 2431 bound_to 621 
  -18.1551   27.4723  -13.6549 LP  0  0  0  0  0  0  0  0  0  0  0  0  # atno 2432 bound_to 621 

$$$$
Compound 167|DecoysActives|sdf|174|dock4
  -GOLD-   6112412153D 1   1.00000     0.00000

 25 26  0  0  0  0  0  0  0  0  3 V2000
  -26.4989   31.2557  -18.3997 O   0  0  0  0  0  0  0  0  0  0  0  0
  -25.9351   32.2889  -18.7858 N   0  3  0  0  0  0  0  0  0  0  0  0
  -25.4109   32.4569  -19.8958 O   0  5  0  0  0  0  0  0  0  0  0  0
  -25.9610   33.4307  -17.8883 C   0  0  0  0  0  0  0  0  0  0  0  0
  -25.1877   33.4368  -16.7134 C   0  0  0  0  0  0  0  0  0  0  0  0
  -26.8364   34.4770  -18.2264 C   0  0  0  0  0  0  0  0  0  0  0  0
  -24.2211   32.3850  -16.3664 C   0  0  0  0  0  0  0  0  0  0  0  0
  -25.3568   34.5498  -15.8631 C   0  0  0  0  0  0  0  0  0  0  0  0
  -26.9640   35.5640  -17.3671 C   0  0  0  0  0  0  0  0  0  0  0  0
  -24.0250   31.4179  -17.2571 N   0  0  0  0  0  0  0  0  0  0  0  0
  -23.5671   32.5069  -15.2131 N   0  0  0  0  0  0  0  0  0  0  0  0
  -26.2299   35.5973  -16.1841 C   0  0  0  0  0  0  0  0  0  0  0  0
  -23.1288   30.5121  -16.9053 C   0  0  0  0  0  0  0  0  0  0  0  0
  -22.6924   31.5453  -14.9708 C   0  0  0  0  0  0  0  0  0  0  0  0
  -22.4354   30.5297  -15.7789 N   0  0  0  0  0  0  0  0  0  0  0  0
  -22.9062   29.4823  -17.7729 N   0  0  0  0  0  0  0  0  0  0  0  0
  -21.9997   31.6075  -13.7959 N   0  0  0  0  0  0  0  0  0  0  0  0
  -27.4206   34.4410  -19.1438 H   0  0  0  0  0  0  0  0  0  0  0  0
  -24.7882   34.6134  -14.9347 H   0  0  0  0  0  0  0  0  0  0  0  0
  -27.6389   36.3806  -17.6136 H   0  0  0  0  0  0  0  0  0  0  0  0
  -26.3301   36.4429  -15.5065 H   0  0  0  0  0  0  0  0  0  0  0  0
  -23.4309   29.4629  -18.6308 H   0  0  0  0  0  0  0  0  0  0  0  0
  -22.3152   28.7272  -17.4725 H   0  0  0  0  0  0  0  0  0  0  0  0
  -22.1884   32.3771  -13.1774 H   0  0  0  0  0  0  0  0  0  0  0  0
  -21.2846   30.9232  -13.6242 H   0  0  0  0  0  0  0  0  0  0  0  0
  1  2  2  0  0  0  0
  2  3  1  0  0  0  0
  2  4  1  0  0  0  0
  4  5  2  0  0  0  0
  4  6  1  0  0  0  0
  5  7  1  0  0  0  0
  5  8  1  0  0  0  0
  6  9  2  0  0  0  0
  6 18  1  0  0  0  0
  7 10  2  0  0  0  0
  7 11  1  0  0  0  0
  8 12  2  0  0  0  0
  8 19  1  0  0  0  0
  9 12  1  0  0  0  0
  9 20  1  0  0  0  0
 10 13  1  0  0  0  0
 11 14  2  0  0  0  0
 12 21  1  0  0  0  0
 13 15  2  0  0  0  0
 13 16  1  0  0  0  0
 14 17  1  0  0  0  0
 14 15  1  0  0  0  0
 16 22  1  0  0  0  0
 16 23  1  0  0  0  0
 17 24  1  0  0  0  0
 17 25  1  0  0  0  0
M  CHG  1   2   1
M  CHG  1   3  -1
M  END
>  <Column 1>
Nc1nc(N)nc(-c2ccccc2[N+](=O)[O-])n1 ZINC000000033068

>  <Total Molweight>
232.203

>  <cLogP>
0.0785

>  <cLogS>
-4.288

>  <H-Acceptors>
7

>  <H-Donors>
2

>  <Total Surface Area>
170.01

>  <MMFF94 Energy>
-198.58

> <Gold.Version>
5.8.1

> <Gold.Id.Protein>
ID|2FQT|mol2

> <Gold.PLP.Fitness>
38.8110

> <Gold.PLP.PLP>
-32.4126

> <Gold.PLP.part.hbond>
-1.0000

> <Gold.PLP.part.metal>
-1.0000

> <Gold.PLP.part.buried>
-6.1789

> <Gold.PLP.part.nonpolar>
-25.7037

> <Gold.PLP.part.repulsive>
0.5190

> <Gold.PLP.ligand.clash>
0.0000

> <Gold.PLP.ligand.torsion>
1.3540

> <Gold.PLP.Chemscore.Hbond>
0.4640

> <Gold.PLP.Chemscore.CHOScore>
0.0000

> <Gold.PLP.Chemscore.Metal>
0.9693

> <Gold.Chemscore.Hbonds>
donor molecule, donor type, donor heavy atom, donor atom, acceptor molecule, acceptor atom, score
      L1  H    17    25       P1   611  0.46
      P1  M  1222  1222       L1     1  0.97

> <Gold.PLP.Chemscore.Internal.Correction>
1.8984

> <Gold.Protein.RotatedTorsions>
[ 1849  621  620  617 ] final  -36.00 input   60.00 | X-H torsion

> <Gold.Protein.ActiveResidues>
 HIS54   GLU57   HIS58   ALA61   PHE62   ILE76   ILE77   ASP78   ILE79   SER80  
 PRO81   GLN125  CYS126  GLY127  GLN128  HIS132  CO701  

> <Gold.Protein.RotatedAtoms>
  -19.7183   28.4445  -13.4995 H   0  0  0  0  0  0  0  0  0  0  0  0  # atno 1849 bound_to 621 
  -18.6706   27.2894  -13.9646 LP  0  0  0  0  0  0  0  0  0  0  0  0  # atno 2431 bound_to 621 
  -18.1869   28.4739  -12.9498 LP  0  0  0  0  0  0  0  0  0  0  0  0  # atno 2432 bound_to 621 

$$$$
Compound 168|DecoysActives|sdf|175|dock2
  -GOLD-   6112412153D 1   1.00000     0.00000

 27 28  0  0  0  0  0  0  0  0  3 V2000
  -23.7925   39.3013  -15.4161 Cl  0  0  0  0  0  0  0  0  0  0  0  0
  -24.2987   37.8174  -16.1204 C   0  0  0  0  0  0  0  0  0  0  0  0
  -25.5231   37.7367  -16.7685 C   0  0  0  0  0  0  0  0  0  0  0  0
  -23.4841   36.6967  -16.0427 C   0  0  0  0  0  0  0  0  0  0  0  0
  -25.9308   36.5239  -17.3416 C   0  0  0  0  0  0  0  0  0  0  0  0
  -23.9021   35.4887  -16.6182 C   0  0  0  0  0  0  0  0  0  0  0  0
  -25.1358   35.3636  -17.2847 C   0  0  0  0  0  0  0  0  0  0  0  0
  -25.5444   34.1649  -17.8532 N   0  0  0  0  0  0  0  0  0  0  0  0
  -26.5032   34.1354  -18.9295 C   0  0  0  0  0  0  0  0  0  0  0  0
  -25.0162   32.9017  -17.4000 C   0  0  0  0  0  0  0  0  0  0  0  0
  -26.4848   32.8931  -19.6366 N   0  0  0  0  0  0  0  0  0  0  0  0
  -25.8394   31.7981  -17.7924 N   0  0  0  0  0  0  0  0  0  0  0  0
  -26.3903   31.6870  -19.0263 C   0  0  0  0  0  0  0  0  0  0  0  0
  -26.8238   30.6411  -19.6555 N   0  0  0  0  0  0  0  0  0  0  0  0
  -26.7674   29.4462  -19.0385 N   0  3  0  0  0  0  0  0  0  0  0  0
  -26.1836   29.3174  -17.9476 O   0  0  0  0  0  0  0  0  0  0  0  0
  -27.3021   28.4884  -19.6137 O   0  5  0  0  0  0  0  0  0  0  0  0
  -26.1719   38.6063  -16.8317 H   0  0  0  0  0  0  0  0  0  0  0  0
  -22.5207   36.7494  -15.5427 H   0  0  0  0  0  0  0  0  0  0  0  0
  -26.9073   36.5109  -17.8190 H   0  0  0  0  0  0  0  0  0  0  0  0
  -23.2167   34.6483  -16.5469 H   0  0  0  0  0  0  0  0  0  0  0  0
  -27.5125   34.3055  -18.5355 H   0  0  0  0  0  0  0  0  0  0  0  0
  -26.2933   34.9290  -19.6565 H   0  0  0  0  0  0  0  0  0  0  0  0
  -24.0062   32.7533  -17.8008 H   0  0  0  0  0  0  0  0  0  0  0  0
  -24.9450   32.8816  -16.3060 H   0  0  0  0  0  0  0  0  0  0  0  0
  -26.8694   32.8997  -20.5716 H   0  0  0  0  0  0  0  0  0  0  0  0
  -25.6782   30.9387  -17.2738 H   0  0  0  0  0  0  0  0  0  0  0  0
  1  2  1  0  0  0  0
  2  3  2  0  0  0  0
  2  4  1  0  0  0  0
  3  5  1  0  0  0  0
  3 18  1  0  0  0  0
  4  6  2  0  0  0  0
  4 19  1  0  0  0  0
  5  7  2  0  0  0  0
  5 20  1  0  0  0  0
  6  7  1  0  0  0  0
  6 21  1  0  0  0  0
  7  8  1  0  0  0  0
  8  9  1  0  0  0  0
  8 10  1  0  0  0  0
  9 11  1  0  0  0  0
  9 22  1  0  0  0  0
  9 23  1  0  0  0  0
 10 12  1  0  0  0  0
 10 24  1  0  0  0  0
 10 25  1  0  0  0  0
 11 13  1  0  0  0  0
 11 26  1  0  0  0  0
 12 13  1  0  0  0  0
 12 27  1  0  0  0  0
 13 14  2  0  0  0  0
 14 15  1  0  0  0  0
 15 16  2  0  0  0  0
 15 17  1  0  0  0  0
M  CHG  1  15   1
M  CHG  1  17  -1
M  END
>  <Column 1>
O=[N+]([O-])N=C1NCN(c2ccc(Cl)cc2)CN1 ZINC000000033112

>  <Total Molweight>
255.664

>  <cLogP>
1.9082

>  <cLogS>
-4.823

>  <H-Acceptors>
6

>  <H-Donors>
2

>  <Total Surface Area>
182.56

>  <MMFF94 Energy>
-205.86

> <Gold.Version>
5.8.1

> <Gold.Id.Protein>
ID|2FQT|mol2

> <Gold.PLP.Fitness>
48.8317

> <Gold.PLP.PLP>
-25.6770

> <Gold.PLP.part.hbond>
-2.0000

> <Gold.PLP.part.metal>
-3.0000

> <Gold.PLP.part.buried>
4.8929

> <Gold.PLP.part.nonpolar>
-25.9064

> <Gold.PLP.part.repulsive>
0.4328

> <Gold.PLP.ligand.clash>
0.0000

> <Gold.PLP.ligand.torsion>
0.2521

> <Gold.PLP.Chemscore.Hbond>
1.9600

> <Gold.PLP.Chemscore.CHOScore>
0.0000

> <Gold.PLP.Chemscore.Metal>
2.9631

> <Gold.Chemscore.Hbonds>
donor molecule, donor type, donor heavy atom, donor atom, acceptor molecule, acceptor atom, score
      L1  H    11    26       P1   954  1.00
      P1  H   966  2177       L1    17  0.96
      P1  M  1222  1222       L1    14  1.00
      P1  M  1222  1222       L1    16  0.97
      P1  M  1222  1222       L1    17  1.00

> <Gold.PLP.Chemscore.Internal.Correction>
0.0004

> <Gold.Protein.RotatedTorsions>
[ 1849  621  620  617 ] final  -70.72 input   60.00 | X-H torsion

> <Gold.Protein.ActiveResidues>
 HIS54   GLU57   HIS58   ALA61   PHE62   ILE76   ILE77   ASP78   ILE79   SER80  
 PRO81   GLN125  CYS126  GLY127  GLN128  HIS132  CO701  

> <Gold.Protein.RotatedAtoms>
  -19.7236   27.9909  -13.8256 H   0  0  0  0  0  0  0  0  0  0  0  0  # atno 1849 bound_to 621 
  -18.1991   27.4369  -13.6954 LP  0  0  0  0  0  0  0  0  0  0  0  0  # atno 2431 bound_to 621 
  -18.6531   28.7832  -12.8905 LP  0  0  0  0  0  0  0  0  0  0  0  0  # atno 2432 bound_to 621 

$$$$
Compound 169|DecoysActives|sdf|176|dock12
  -GOLD-   6112412153D 1   1.00000     0.00000

 32 34  0  0  0  0  0  0  0  0  1 V2000
  -25.3055   30.2870  -18.4521 S   0  0  0  0  0  0  0  0  0  0  0  0
  -24.1295   30.2812  -19.2977 O   0  0  0  0  0  0  0  0  0  0  0  0
  -26.6323   30.1863  -19.0141 O   0  0  0  0  0  0  0  0  0  0  0  0
  -25.1228   29.0581  -17.3412 N   0  0  0  0  0  0  0  0  0  0  0  0
  -25.2551   31.7386  -17.4703 C   0  0  0  0  0  0  0  0  0  0  0  0
  -25.0199   27.6687  -17.7986 C   0  0  0  0  0  0  0  0  0  0  0  0
  -25.6858   32.9977  -17.9473 C   0  0  0  0  0  0  0  0  0  0  0  0
  -24.7774   31.6862  -16.1412 C   0  0  0  0  0  0  0  0  0  0  0  0
  -26.4078   27.0118  -17.7132 C   0  0  1  0  0  0  0  0  0  0  0  0
  -26.1834   33.3023  -19.1576 N   0  0  0  0  0  0  0  0  0  0  0  0
  -25.6171   34.2055  -17.0388 C   0  0  0  0  0  0  0  0  0  0  0  0
  -24.7169   32.8211  -15.3006 C   0  0  0  0  0  0  0  0  0  0  0  0
  -27.3405   27.7912  -18.4970 O   0  0  0  0  0  0  0  0  0  0  0  0
  -26.4284   25.6053  -18.2935 C   0  0  0  0  0  0  0  0  0  0  0  0
  -26.5076   34.9273  -19.1600 S   0  0  0  0  0  0  0  0  0  0  0  0
  -26.0591   35.3332  -17.6152 N   0  0  0  0  0  0  0  0  0  0  0  0
  -25.1281   34.0991  -15.7138 C   0  0  0  0  0  0  0  0  0  0  0  0
  -27.7991   26.9931  -19.5965 C   0  0  0  0  0  0  0  0  0  0  0  0
  -26.8293   25.8411  -19.7284 C   0  0  0  0  0  0  0  0  0  0  0  0
  -25.5791   29.2204  -16.4406 H   0  0  0  0  0  0  0  0  0  0  0  0
  -24.6714   27.6764  -18.8371 H   0  0  0  0  0  0  0  0  0  0  0  0
  -24.3063   27.1176  -17.1779 H   0  0  0  0  0  0  0  0  0  0  0  0
  -24.4316   30.7325  -15.7374 H   0  0  0  0  0  0  0  0  0  0  0  0
  -26.7535   27.0111  -16.6730 H   0  0  0  0  0  0  0  0  0  0  0  0
  -24.3309   32.6997  -14.2875 H   0  0  0  0  0  0  0  0  0  0  0  0
  -25.4827   25.0668  -18.1865 H   0  0  0  0  0  0  0  0  0  0  0  0
  -27.2075   25.0160  -17.7941 H   0  0  0  0  0  0  0  0  0  0  0  0
  -25.0754   34.9622  -15.0605 H   0  0  0  0  0  0  0  0  0  0  0  0
  -27.8516   27.6060  -20.5005 H   0  0  0  0  0  0  0  0  0  0  0  0
  -28.8067   26.6379  -19.3550 H   0  0  0  0  0  0  0  0  0  0  0  0
  -27.2716   24.9649  -20.2095 H   0  0  0  0  0  0  0  0  0  0  0  0
  -25.9559   26.1497  -20.3142 H   0  0  0  0  0  0  0  0  0  0  0  0
  1  2  2  0  0  0  0
  1  3  2  0  0  0  0
  1  4  1  0  0  0  0
  1  5  1  0  0  0  0
  4  6  1  0  0  0  0
  4 20  1  0  0  0  0
  5  7  1  0  0  0  0
  5  8  2  0  0  0  0
  6  9  1  0  0  0  0
  6 21  1  0  0  0  0
  6 22  1  0  0  0  0
  7 10  2  0  0  0  0
  7 11  1  0  0  0  0
  8 12  1  0  0  0  0
  8 23  1  0  0  0  0
  9 13  1  0  0  0  0
  9 14  1  0  0  0  0
  9 24  1  0  0  0  0
 10 15  1  0  0  0  0
 11 16  2  0  0  0  0
 11 17  1  0  0  0  0
 12 17  2  0  0  0  0
 12 25  1  0  0  0  0
 13 18  1  0  0  0  0
 14 19  1  0  0  0  0
 14 26  1  0  0  0  0
 14 27  1  0  0  0  0
 15 16  1  0  0  0  0
 17 28  1  0  0  0  0
 18 19  1  0  0  0  0
 18 29  1  0  0  0  0
 18 30  1  0  0  0  0
 19 31  1  0  0  0  0
 19 32  1  0  0  0  0
M  END
>  <Column 1>
O=S(=O)(NC[C@@H]1CCCO1)c1cccc2nsnc12 ZINC000000033207

>  <Total Molweight>
299.374

>  <cLogP>
1.6014

>  <cLogS>
1.514

>  <H-Acceptors>
6

>  <H-Donors>
1

>  <Total Surface Area>
205.4

>  <MMFF94 Energy>
-36.504

> <Gold.Version>
5.8.1

> <Gold.Id.Protein>
ID|2FQT|mol2

> <Gold.PLP.Fitness>
52.4988

> <Gold.PLP.PLP>
-38.6635

> <Gold.PLP.part.hbond>
-1.2235

> <Gold.PLP.part.metal>
-2.0000

> <Gold.PLP.part.buried>
-4.2106

> <Gold.PLP.part.nonpolar>
-32.0357

> <Gold.PLP.part.repulsive>
0.2958

> <Gold.PLP.ligand.clash>
0.0000

> <Gold.PLP.ligand.torsion>
2.0381

> <Gold.PLP.Chemscore.Hbond>
1.0000

> <Gold.PLP.Chemscore.CHOScore>
0.0000

> <Gold.PLP.Chemscore.Metal>
1.9865

> <Gold.Chemscore.Hbonds>
donor molecule, donor type, donor heavy atom, donor atom, acceptor molecule, acceptor atom, score
      L1  H     4    20       P1   426  1.00
      P1  M  1222  1222       L1     3  1.00
      P1  M  1222  1222       L1    13  0.99

> <Gold.PLP.Chemscore.Internal.Correction>
2.9923

> <Gold.Protein.RotatedTorsions>
[ 1849  621  620  617 ] final  141.80 input   60.00 | X-H torsion

> <Gold.Protein.ActiveResidues>
 HIS54   GLU57   HIS58   ALA61   PHE62   ILE76   ILE77   ASP78   ILE79   SER80  
 PRO81   GLN125  CYS126  GLY127  GLN128  HIS132  CO701  

> <Gold.Protein.RotatedAtoms>
  -17.9938   27.7204  -13.4186 H   0  0  0  0  0  0  0  0  0  0  0  0  # atno 1849 bound_to 621 
  -19.0841   28.8506  -12.9919 LP  0  0  0  0  0  0  0  0  0  0  0  0  # atno 2431 bound_to 621 
  -19.5101   27.6419  -14.0039 LP  0  0  0  0  0  0  0  0  0  0  0  0  # atno 2432 bound_to 621 

$$$$
Compound 170|DecoysActives|sdf|177|dock3
  -GOLD-   6112412153D 1   1.00000     0.00000

 38 41  0  0  0  0  0  0  0  0  1 V2000
  -26.1970   31.0192  -20.6343 S   0  0  0  0  0  0  0  0  0  0  0  0
  -26.0820   29.4969  -19.8091 C   0  0  0  0  0  0  0  0  0  0  0  0
  -26.0593   32.1164  -19.3036 C   0  0  0  0  0  0  0  0  0  0  0  0
  -27.0567   28.6087  -19.7131 N   0  0  0  0  0  0  0  0  0  0  0  0
  -24.9554   29.0960  -19.1276 N   0  0  0  0  0  0  0  0  0  0  0  0
  -25.4105   31.8796  -18.1868 N   0  0  0  0  0  0  0  0  0  0  0  0
  -26.6804   33.3333  -19.2833 N   0  0  0  0  0  0  0  0  0  0  0  0
  -26.5325   27.6113  -18.9503 C   0  0  0  0  0  0  0  0  0  0  0  0
  -25.2519   27.8758  -18.5731 C   0  0  0  0  0  0  0  0  0  0  0  0
  -23.6865   29.7725  -18.9934 C   0  0  0  0  0  0  0  0  0  0  0  0
  -25.6036   33.0050  -17.4206 C   0  0  0  0  0  0  0  0  0  0  0  0
  -26.3956   33.9363  -18.0871 C   0  0  0  0  0  0  0  0  0  0  0  0
  -27.1774   26.4578  -18.5748 N   0  0  0  0  0  0  0  0  0  0  0  0
  -24.4821   26.9927  -17.7652 C   0  0  0  0  0  0  0  0  0  0  0  0
  -25.1297   33.3071  -16.1357 C   0  0  0  0  0  0  0  0  0  0  0  0
  -26.7481   35.1737  -17.5457 C   0  0  0  0  0  0  0  0  0  0  0  0
  -26.5030   25.5246  -17.7846 C   0  0  0  0  0  0  0  0  0  0  0  0
  -28.5479   26.2156  -18.9874 C   0  0  0  0  0  0  0  0  0  0  0  0
  -23.3318   27.2427  -17.4197 O   0  0  0  0  0  0  0  0  0  0  0  0
  -25.1775   25.8319  -17.4160 N   0  0  0  0  0  0  0  0  0  0  0  0
  -25.4693   34.5417  -15.5672 C   0  0  0  0  0  0  0  0  0  0  0  0
  -26.2642   35.4566  -16.2629 C   0  0  0  0  0  0  0  0  0  0  0  0
  -27.0380   24.4740  -17.4194 O   0  0  0  0  0  0  0  0  0  0  0  0
  -24.4964   24.8486  -16.5956 C   0  0  0  0  0  0  0  0  0  0  0  0
  -27.2160   33.7123  -20.0538 H   0  0  0  0  0  0  0  0  0  0  0  0
  -22.8967   29.0977  -19.3339 H   0  0  0  0  0  0  0  0  0  0  0  0
  -23.6567   30.6803  -19.5967 H   0  0  0  0  0  0  0  0  0  0  0  0
  -23.5454   30.0294  -17.9403 H   0  0  0  0  0  0  0  0  0  0  0  0
  -24.5129   32.5930  -15.6017 H   0  0  0  0  0  0  0  0  0  0  0  0
  -27.3659   35.8831  -18.0849 H   0  0  0  0  0  0  0  0  0  0  0  0
  -28.9224   25.2555  -18.6235 H   0  0  0  0  0  0  0  0  0  0  0  0
  -29.1851   27.0126  -18.5910 H   0  0  0  0  0  0  0  0  0  0  0  0
  -28.5971   26.2184  -20.0810 H   0  0  0  0  0  0  0  0  0  0  0  0
  -25.1080   34.7882  -14.5714 H   0  0  0  0  0  0  0  0  0  0  0  0
  -26.5129   36.4085  -15.7976 H   0  0  0  0  0  0  0  0  0  0  0  0
  -24.4865   23.8893  -17.1234 H   0  0  0  0  0  0  0  0  0  0  0  0
  -25.0535   24.7198  -15.6618 H   0  0  0  0  0  0  0  0  0  0  0  0
  -23.4685   25.1350  -16.3601 H   0  0  0  0  0  0  0  0  0  0  0  0
  1  2  1  0  0  0  0
  1  3  1  0  0  0  0
  2  4  2  0  0  0  0
  2  5  1  0  0  0  0
  3  6  2  0  0  0  0
  3  7  1  0  0  0  0
  4  8  1  0  0  0  0
  5  9  1  0  0  0  0
  5 10  1  0  0  0  0
  6 11  1  0  0  0  0
  7 12  1  0  0  0  0
  7 25  1  0  0  0  0
  8 13  1  0  0  0  0
  8  9  2  0  0  0  0
  9 14  1  0  0  0  0
 10 26  1  0  0  0  0
 10 27  1  0  0  0  0
 10 28  1  0  0  0  0
 11 15  1  0  0  0  0
 11 12  2  0  0  0  0
 12 16  1  0  0  0  0
 13 17  1  0  0  0  0
 13 18  1  0  0  0  0
 14 19  2  0  0  0  0
 14 20  1  0  0  0  0
 15 21  2  0  0  0  0
 15 29  1  0  0  0  0
 16 22  2  0  0  0  0
 16 30  1  0  0  0  0
 17 23  2  0  0  0  0
 17 20  1  0  0  0  0
 18 31  1  0  0  0  0
 18 32  1  0  0  0  0
 18 33  1  0  0  0  0
 20 24  1  0  0  0  0
 21 22  1  0  0  0  0
 21 34  1  0  0  0  0
 22 35  1  0  0  0  0
 24 36  1  0  0  0  0
 24 37  1  0  0  0  0
 24 38  1  0  0  0  0
M  END
>  <Column 1>
Cn1c(=O)c2c(nc(Sc3nc4ccccc4[nH]3)n2C)n(C)c1=O ZINC000000033396

>  <Total Molweight>
342.382

>  <cLogP>
1.7265

>  <cLogS>
-2.679

>  <H-Acceptors>
8

>  <H-Donors>
1

>  <Total Surface Area>
240.78

>  <MMFF94 Energy>
-127.47

> <Gold.Version>
5.8.1

> <Gold.Id.Protein>
ID|2FQT|mol2

> <Gold.PLP.Fitness>
56.9721

> <Gold.PLP.PLP>
-46.1496

> <Gold.PLP.part.hbond>
-2.0000

> <Gold.PLP.part.metal>
-0.9600

> <Gold.PLP.part.buried>
-4.4344

> <Gold.PLP.part.nonpolar>
-39.7503

> <Gold.PLP.part.repulsive>
0.2785

> <Gold.PLP.ligand.clash>
0.0000

> <Gold.PLP.ligand.torsion>
0.4003

> <Gold.PLP.Chemscore.Hbond>
1.9920

> <Gold.PLP.Chemscore.CHOScore>
0.0000

> <Gold.PLP.Chemscore.Metal>
0.9399

> <Gold.Chemscore.Hbonds>
donor molecule, donor type, donor heavy atom, donor atom, acceptor molecule, acceptor atom, score
      L1  H     7    25       P1   954  1.00
      P1  H   966  2177       L1     4  0.99
      P1  M  1222  1222       L1     4  0.94

> <Gold.PLP.Chemscore.Internal.Correction>
0.0075

> <Gold.Protein.RotatedTorsions>
[ 1849  621  620  617 ] final  -35.45 input   60.00 | X-H torsion

> <Gold.Protein.ActiveResidues>
 HIS54   GLU57   HIS58   ALA61   PHE62   ILE76   ILE77   ASP78   ILE79   SER80  
 PRO81   GLN125  CYS126  GLY127  GLN128  HIS132  CO701  

> <Gold.Protein.RotatedAtoms>
  -19.7156   28.4510  -13.4939 H   0  0  0  0  0  0  0  0  0  0  0  0  # atno 1849 bound_to 621 
  -18.6791   27.2893  -13.9676 LP  0  0  0  0  0  0  0  0  0  0  0  0  # atno 2431 bound_to 621 
  -18.1811   28.4674  -12.9524 LP  0  0  0  0  0  0  0  0  0  0  0  0  # atno 2432 bound_to 621 

$$$$
Compound 171|DecoysActives|sdf|178|dock7
  -GOLD-   6112412153D 1   1.00000     0.00000

 29 30  0  0  0  0  0  0  0  0  3 V2000
  -26.3257   29.2722  -17.9163 O   0  0  0  0  0  0  0  0  0  0  0  0
  -26.5385   29.4612  -19.1201 N   0  3  0  0  0  0  0  0  0  0  0  0
  -27.1915   28.7253  -19.8719 O   0  5  0  0  0  0  0  0  0  0  0  0
  -25.9117   30.5987  -19.7156 C   0  0  0  0  0  0  0  0  0  0  0  0
  -25.2639   31.6469  -19.0785 C   0  0  0  0  0  0  0  0  0  0  0  0
  -25.8770   30.9095  -21.0845 C   0  0  0  0  0  0  0  0  0  0  0  0
  -24.9694   32.5351  -20.0842 N   0  0  0  0  0  0  0  0  0  0  0  0
  -24.9372   31.8573  -17.6818 C   0  0  0  0  0  0  0  0  0  0  0  0
  -25.3038   32.0933  -21.3148 N   0  0  0  0  0  0  0  0  0  0  0  0
  -24.3262   33.8244  -19.9501 C   0  0  0  0  0  0  0  0  0  0  0  0
  -24.4071   30.9705  -17.0150 O   0  0  0  0  0  0  0  0  0  0  0  0
  -25.2865   33.0619  -17.0048 N   0  0  0  0  0  0  0  0  0  0  0  0
  -26.0981   33.9630  -17.6384 N   0  0  0  0  0  0  0  0  0  0  0  0
  -24.9847   33.4784  -15.7148 C   0  0  0  0  0  0  0  0  0  0  0  0
  -26.2583   34.9604  -16.7647 C   0  0  0  0  0  0  0  0  0  0  0  0
  -25.5939   34.7039  -15.5509 C   0  0  0  0  0  0  0  0  0  0  0  0
  -24.1397   32.7030  -14.7730 C   0  0  0  0  0  0  0  0  0  0  0  0
  -27.0665   36.1488  -17.1307 C   0  0  0  0  0  0  0  0  0  0  0  0
  -26.2640   30.3384  -21.9200 H   0  0  0  0  0  0  0  0  0  0  0  0
  -24.0268   34.1847  -20.9380 H   0  0  0  0  0  0  0  0  0  0  0  0
  -25.0418   34.5168  -19.5009 H   0  0  0  0  0  0  0  0  0  0  0  0
  -23.4408   33.7122  -19.3195 H   0  0  0  0  0  0  0  0  0  0  0  0
  -25.5582   35.3313  -14.6703 H   0  0  0  0  0  0  0  0  0  0  0  0
  -24.6249   31.7607  -14.4999 H   0  0  0  0  0  0  0  0  0  0  0  0
  -23.9714   33.2676  -13.8498 H   0  0  0  0  0  0  0  0  0  0  0  0
  -23.1598   32.4882  -15.2106 H   0  0  0  0  0  0  0  0  0  0  0  0
  -27.0678   36.8891  -16.3244 H   0  0  0  0  0  0  0  0  0  0  0  0
  -28.1040   35.8605  -17.3284 H   0  0  0  0  0  0  0  0  0  0  0  0
  -26.6618   36.6268  -18.0287 H   0  0  0  0  0  0  0  0  0  0  0  0
  1  2  2  0  0  0  0
  2  3  1  0  0  0  0
  2  4  1  0  0  0  0
  4  5  2  0  0  0  0
  4  6  1  0  0  0  0
  5  7  1  0  0  0  0
  5  8  1  0  0  0  0
  6  9  2  0  0  0  0
  6 19  1  0  0  0  0
  7 10  1  0  0  0  0
  7  9  1  0  0  0  0
  8 11  2  0  0  0  0
  8 12  1  0  0  0  0
 10 20  1  0  0  0  0
 10 21  1  0  0  0  0
 10 22  1  0  0  0  0
 12 13  1  0  0  0  0
 12 14  1  0  0  0  0
 13 15  2  0  0  0  0
 14 16  2  0  0  0  0
 14 17  1  0  0  0  0
 15 18  1  0  0  0  0
 15 16  1  0  0  0  0
 16 23  1  0  0  0  0
 17 24  1  0  0  0  0
 17 25  1  0  0  0  0
 17 26  1  0  0  0  0
 18 27  1  0  0  0  0
 18 28  1  0  0  0  0
 18 29  1  0  0  0  0
M  CHG  1   2   1
M  CHG  1   3  -1
M  END
>  <Column 1>
Cc1cc(C)n(C(=O)c2c([N+](=O)[O-])cnn2C)n1 ZINC000000033406

>  <Total Molweight>
249.229

>  <cLogP>
-0.5337

>  <cLogS>
-2.862

>  <H-Acceptors>
7

>  <H-Donors>
0

>  <Total Surface Area>
187.14

>  <MMFF94 Energy>
66.725

> <Gold.Version>
5.8.1

> <Gold.Id.Protein>
ID|2FQT|mol2

> <Gold.PLP.Fitness>
49.6145

> <Gold.PLP.PLP>
-35.4397

> <Gold.PLP.part.hbond>
-0.8011

> <Gold.PLP.part.metal>
-2.0000

> <Gold.PLP.part.buried>
1.2927

> <Gold.PLP.part.nonpolar>
-34.8298

> <Gold.PLP.part.repulsive>
0.9098

> <Gold.PLP.ligand.clash>
0.0000

> <Gold.PLP.ligand.torsion>
0.9367

> <Gold.PLP.Chemscore.Hbond>
1.0000

> <Gold.PLP.Chemscore.CHOScore>
0.0000

> <Gold.PLP.Chemscore.Metal>
1.9680

> <Gold.Chemscore.Hbonds>
donor molecule, donor type, donor heavy atom, donor atom, acceptor molecule, acceptor atom, score
      P1  H   966  2177       L1     3  1.00
      P1  M  1222  1222       L1     1  1.00
      P1  M  1222  1222       L1     3  0.97

> <Gold.PLP.Chemscore.Internal.Correction>
1.2403

> <Gold.Protein.RotatedTorsions>
[ 1849  621  620  617 ] final  -28.72 input   60.00 | X-H torsion

> <Gold.Protein.ActiveResidues>
 HIS54   GLU57   HIS58   ALA61   PHE62   ILE76   ILE77   ASP78   ILE79   SER80  
 PRO81   GLN125  CYS126  GLY127  GLN128  HIS132  CO701  

> <Gold.Protein.RotatedAtoms>
  -19.6762   28.5275  -13.4255 H   0  0  0  0  0  0  0  0  0  0  0  0  # atno 1849 bound_to 621 
  -18.7847   27.2938  -14.0010 LP  0  0  0  0  0  0  0  0  0  0  0  0  # atno 2431 bound_to 621 
  -18.1153   28.3858  -12.9879 LP  0  0  0  0  0  0  0  0  0  0  0  0  # atno 2432 bound_to 621 

$$$$
Compound 172|DecoysActives|sdf|179|dock1
  -GOLD-   6112412153D 1   1.00000     0.00000

 31 32  0  0  0  0  0  0  0  0  1 V2000
  -26.6722   36.9376  -16.0265 O   0  0  0  0  0  0  0  0  0  0  0  0
  -26.8077   36.4786  -17.3795 C   0  0  0  0  0  0  0  0  0  0  0  0
  -25.4136   36.5042  -15.4908 C   0  0  0  0  0  0  0  0  0  0  0  0
  -26.7858   34.9457  -17.4640 C   0  0  0  0  0  0  0  0  0  0  0  0
  -25.3071   34.9728  -15.4590 C   0  0  0  0  0  0  0  0  0  0  0  0
  -25.6099   34.4055  -16.7758 N   0  0  0  0  0  0  0  0  0  0  0  0
  -25.2614   33.0892  -17.0100 C   0  0  0  0  0  0  0  0  0  0  0  0
  -24.2564   32.5575  -16.3185 N   0  0  0  0  0  0  0  0  0  0  0  0
  -25.9305   32.4072  -17.9270 N   0  0  0  0  0  0  0  0  0  0  0  0
  -23.9269   31.2954  -16.5690 C   0  0  0  0  0  0  0  0  0  0  0  0
  -25.5224   31.1530  -18.1039 C   0  0  0  0  0  0  0  0  0  0  0  0
  -24.5351   30.5385  -17.4612 N   0  0  0  0  0  0  0  0  0  0  0  0
  -22.9023   30.7039  -15.8833 N   0  0  0  0  0  0  0  0  0  0  0  0
  -26.2272   30.3819  -19.0928 C   0  0  0  0  0  0  0  0  0  0  0  0
  -22.2338   31.3704  -14.7954 C   0  0  0  0  0  0  0  0  0  0  0  0
  -26.8000   29.7577  -19.8909 N   0  0  0  0  0  0  0  0  0  0  0  0
  -20.7587   31.5393  -15.1202 C   0  0  0  0  0  0  0  0  0  0  0  0
  -27.7591   36.8577  -17.7665 H   0  0  0  0  0  0  0  0  0  0  0  0
  -26.0056   36.9160  -17.9865 H   0  0  0  0  0  0  0  0  0  0  0  0
  -24.6029   36.9411  -16.0865 H   0  0  0  0  0  0  0  0  0  0  0  0
  -25.3288   36.9027  -14.4747 H   0  0  0  0  0  0  0  0  0  0  0  0
  -27.6880   34.5441  -16.9860 H   0  0  0  0  0  0  0  0  0  0  0  0
  -26.8049   34.6687  -18.5245 H   0  0  0  0  0  0  0  0  0  0  0  0
  -24.2960   34.7155  -15.1223 H   0  0  0  0  0  0  0  0  0  0  0  0
  -26.0252   34.5752  -14.7310 H   0  0  0  0  0  0  0  0  0  0  0  0
  -22.6325   29.7846  -16.1984 H   0  0  0  0  0  0  0  0  0  0  0  0
  -22.6767   32.3583  -14.6225 H   0  0  0  0  0  0  0  0  0  0  0  0
  -22.3308   30.7871  -13.8721 H   0  0  0  0  0  0  0  0  0  0  0  0
  -20.2425   32.0448  -14.2981 H   0  0  0  0  0  0  0  0  0  0  0  0
  -20.2782   30.5683  -15.2813 H   0  0  0  0  0  0  0  0  0  0  0  0
  -20.6223   32.1355  -16.0287 H   0  0  0  0  0  0  0  0  0  0  0  0
  1  2  1  0  0  0  0
  1  3  1  0  0  0  0
  2  4  1  0  0  0  0
  2 18  1  0  0  0  0
  2 19  1  0  0  0  0
  3  5  1  0  0  0  0
  3 20  1  0  0  0  0
  3 21  1  0  0  0  0
  4  6  1  0  0  0  0
  4 22  1  0  0  0  0
  4 23  1  0  0  0  0
  5  6  1  0  0  0  0
  5 24  1  0  0  0  0
  5 25  1  0  0  0  0
  6  7  1  0  0  0  0
  7  8  2  0  0  0  0
  7  9  1  0  0  0  0
  8 10  1  0  0  0  0
  9 11  2  0  0  0  0
 10 12  2  0  0  0  0
 10 13  1  0  0  0  0
 11 14  1  0  0  0  0
 11 12  1  0  0  0  0
 13 15  1  0  0  0  0
 13 26  1  0  0  0  0
 14 16  3  0  0  0  0
 15 17  1  0  0  0  0
 15 27  1  0  0  0  0
 15 28  1  0  0  0  0
 17 29  1  0  0  0  0
 17 30  1  0  0  0  0
 17 31  1  0  0  0  0
M  END
>  <Column 1>
CCNc1nc(C#N)nc(N2CCOCC2)n1 ZINC000000033668

>  <Total Molweight>
234.262

>  <cLogP>
0.1591

>  <cLogS>
-2.051

>  <H-Acceptors>
7

>  <H-Donors>
1

>  <Total Surface Area>
190.57

>  <MMFF94 Energy>
-121.85

> <Gold.Version>
5.8.1

> <Gold.Id.Protein>
ID|2FQT|mol2

> <Gold.PLP.Fitness>
43.4704

> <Gold.PLP.PLP>
-34.7475

> <Gold.PLP.part.hbond>
-1.6172

> <Gold.PLP.part.metal>
-1.0000

> <Gold.PLP.part.buried>
-2.3406

> <Gold.PLP.part.nonpolar>
-30.8516

> <Gold.PLP.part.repulsive>
0.3445

> <Gold.PLP.ligand.clash>
0.0000

> <Gold.PLP.ligand.torsion>
0.1543

> <Gold.PLP.Chemscore.Hbond>
1.0000

> <Gold.PLP.Chemscore.CHOScore>
0.0000

> <Gold.PLP.Chemscore.Metal>
0.9693

> <Gold.Chemscore.Hbonds>
donor molecule, donor type, donor heavy atom, donor atom, acceptor molecule, acceptor atom, score
      P1  H   966  2177       L1    16  1.00
      P1  M  1222  1222       L1    16  0.97

> <Gold.PLP.Chemscore.Internal.Correction>
0.2155

> <Gold.Protein.RotatedTorsions>
[ 1849  621  620  617 ] final -119.09 input   60.00 | X-H torsion

> <Gold.Protein.ActiveResidues>
 HIS54   GLU57   HIS58   ALA61   PHE62   ILE76   ILE77   ASP78   ILE79   SER80  
 PRO81   GLN125  CYS126  GLY127  GLN128  HIS132  CO701  

> <Gold.Protein.RotatedAtoms>
  -19.2395   27.4403  -14.0512 H   0  0  0  0  0  0  0  0  0  0  0  0  # atno 1849 bound_to 621 
  -17.9568   27.9912  -13.2150 LP  0  0  0  0  0  0  0  0  0  0  0  0  # atno 2431 bound_to 621 
  -19.3829   28.7834  -13.1437 LP  0  0  0  0  0  0  0  0  0  0  0  0  # atno 2432 bound_to 621 

$$$$
Compound 173|DecoysActives|sdf|180|dock9
  -GOLD-   6112412153D 1   1.00000     0.00000

 28 28  0  0  0  0  0  0  0  0  1 V2000
  -27.0923   28.2393  -18.0031 O   0  0  0  0  0  0  0  0  0  0  0  0
  -26.6028   29.4075  -18.5475 C   0  0  0  0  0  0  0  0  0  0  0  0
  -26.3849   27.0784  -18.4186 C   0  0  0  0  0  0  0  0  0  0  0  0
  -26.1853   30.2947  -17.6530 N   0  0  0  0  0  0  0  0  0  0  0  0
  -26.5799   29.5640  -19.8607 N   0  0  0  0  0  0  0  0  0  0  0  0
  -25.7000   31.4400  -18.1210 C   0  0  0  0  0  0  0  0  0  0  0  0
  -26.0816   30.7395  -20.2262 C   0  0  0  0  0  0  0  0  0  0  0  0
  -25.6345   31.7017  -19.4207 N   0  0  0  0  0  0  0  0  0  0  0  0
  -25.2549   32.3927  -17.2283 N   0  0  0  0  0  0  0  0  0  0  0  0
  -26.0163   31.0027  -21.6391 C   0  0  0  0  0  0  0  0  0  0  0  0
  -25.0656   32.0513  -15.8240 C   0  0  0  0  0  0  0  0  0  0  0  0
  -24.9986   33.7525  -17.6887 C   0  0  0  0  0  0  0  0  0  0  0  0
  -25.9613   31.2108  -22.7827 N   0  0  0  0  0  0  0  0  0  0  0  0
  -23.6660   32.4027  -15.3405 C   0  0  0  0  0  0  0  0  0  0  0  0
  -25.8462   34.7717  -16.9411 C   0  0  0  0  0  0  0  0  0  0  0  0
  -26.8489   26.2135  -17.9345 H   0  0  0  0  0  0  0  0  0  0  0  0
  -26.4608   26.9330  -19.5018 H   0  0  0  0  0  0  0  0  0  0  0  0
  -25.3375   27.1155  -18.0995 H   0  0  0  0  0  0  0  0  0  0  0  0
  -25.2228   30.9760  -15.6748 H   0  0  0  0  0  0  0  0  0  0  0  0
  -25.8169   32.5435  -15.1938 H   0  0  0  0  0  0  0  0  0  0  0  0
  -25.1652   33.8426  -18.7694 H   0  0  0  0  0  0  0  0  0  0  0  0
  -23.9419   34.0057  -17.5381 H   0  0  0  0  0  0  0  0  0  0  0  0
  -23.4558   33.4715  -15.4455 H   0  0  0  0  0  0  0  0  0  0  0  0
  -22.9034   31.8554  -15.9024 H   0  0  0  0  0  0  0  0  0  0  0  0
  -23.5566   32.1400  -14.2835 H   0  0  0  0  0  0  0  0  0  0  0  0
  -25.6294   34.7574  -15.8689 H   0  0  0  0  0  0  0  0  0  0  0  0
  -26.9166   34.5826  -17.0683 H   0  0  0  0  0  0  0  0  0  0  0  0
  -25.6357   35.7800  -17.3121 H   0  0  0  0  0  0  0  0  0  0  0  0
  1  2  1  0  0  0  0
  1  3  1  0  0  0  0
  2  4  2  0  0  0  0
  2  5  1  0  0  0  0
  3 16  1  0  0  0  0
  3 17  1  0  0  0  0
  3 18  1  0  0  0  0
  4  6  1  0  0  0  0
  5  7  2  0  0  0  0
  6  8  2  0  0  0  0
  6  9  1  0  0  0  0
  7 10  1  0  0  0  0
  7  8  1  0  0  0  0
  9 11  1  0  0  0  0
  9 12  1  0  0  0  0
 10 13  3  0  0  0  0
 11 14  1  0  0  0  0
 11 19  1  0  0  0  0
 11 20  1  0  0  0  0
 12 15  1  0  0  0  0
 12 21  1  0  0  0  0
 12 22  1  0  0  0  0
 14 23  1  0  0  0  0
 14 24  1  0  0  0  0
 14 25  1  0  0  0  0
 15 26  1  0  0  0  0
 15 27  1  0  0  0  0
 15 28  1  0  0  0  0
M  END
>  <Column 1>
CCN(CC)c1nc(C#N)nc(OC)n1 ZINC000000033738

>  <Total Molweight>
207.236

>  <cLogP>
1.0758

>  <cLogS>
-2.242

>  <H-Acceptors>
6

>  <H-Donors>
0

>  <Total Surface Area>
175.85

>  <MMFF94 Energy>
-136.14

> <Gold.Version>
5.8.1

> <Gold.Id.Protein>
ID|2FQT|mol2

> <Gold.PLP.Fitness>
45.0368

> <Gold.PLP.PLP>
-26.2500

> <Gold.PLP.part.hbond>
-1.0000

> <Gold.PLP.part.metal>
-2.3214

> <Gold.PLP.part.buried>
3.1229

> <Gold.PLP.part.nonpolar>
-27.8241

> <Gold.PLP.part.repulsive>
0.4237

> <Gold.PLP.ligand.clash>
0.0000

> <Gold.PLP.ligand.torsion>
0.1086

> <Gold.PLP.Chemscore.Hbond>
1.0000

> <Gold.PLP.Chemscore.CHOScore>
0.0000

> <Gold.PLP.Chemscore.Metal>
2.6666

> <Gold.Chemscore.Hbonds>
donor molecule, donor type, donor heavy atom, donor atom, acceptor molecule, acceptor atom, score
      P1  H   966  2177       L1     5  1.00
      P1  M  1222  1222       L1     1  1.00
      P1  M  1222  1222       L1     4  0.97
      P1  M  1222  1222       L1     5  0.70

> <Gold.PLP.Chemscore.Internal.Correction>
0.0041

> <Gold.Protein.RotatedTorsions>
[ 1849  621  620  617 ] final  167.14 input   60.00 | X-H torsion

> <Gold.Protein.ActiveResidues>
 HIS54   GLU57   HIS58   ALA61   PHE62   ILE76   ILE77   ASP78   ILE79   SER80  
 PRO81   GLN125  CYS126  GLY127  GLN128  HIS132  CO701  

> <Gold.Protein.RotatedAtoms>
  -18.1818   27.4574  -13.6718 H   0  0  0  0  0  0  0  0  0  0  0  0  # atno 1849 bound_to 621 
  -18.6862   28.7947  -12.8938 LP  0  0  0  0  0  0  0  0  0  0  0  0  # atno 2431 bound_to 621 
  -19.7187   27.9627  -13.8470 LP  0  0  0  0  0  0  0  0  0  0  0  0  # atno 2432 bound_to 621 

$$$$
Compound 174|DecoysActives|sdf|181|dock1
  -GOLD-   6112412153D 1   1.00000     0.00000

 31 32  0  0  0  0  0  0  0  0  1 V2000
  -25.9232   29.2463  -18.8304 S   0  0  0  0  0  0  0  0  0  0  0  0
  -24.6190   28.6362  -18.9422 O   0  0  0  0  0  0  0  0  0  0  0  0
  -26.8894   29.2119  -19.9032 O   0  0  0  0  0  0  0  0  0  0  0  0
  -26.6670   28.5110  -17.5175 N   0  0  0  0  0  0  0  0  0  0  0  0
  -25.7407   30.9103  -18.2607 C   0  0  0  0  0  0  0  0  0  0  0  0
  -26.1128   31.9715  -19.0862 C   0  0  0  0  0  0  0  0  0  0  0  0
  -25.1833   31.1538  -17.0051 C   0  0  0  0  0  0  0  0  0  0  0  0
  -25.9449   33.2865  -18.6391 C   0  0  0  0  0  0  0  0  0  0  0  0
  -25.0183   32.4716  -16.5660 C   0  0  0  0  0  0  0  0  0  0  0  0
  -25.3984   33.5545  -17.3743 C   0  0  0  0  0  0  0  0  0  0  0  0
  -25.2310   34.8837  -16.9255 N   0  0  0  0  0  0  0  0  0  0  0  0
  -24.0121   35.4809  -16.6023 C   0  0  0  0  0  0  0  0  0  0  0  0
  -26.2589   35.8078  -16.7359 C   0  0  0  0  0  0  0  0  0  0  0  0
  -22.8933   34.9860  -16.6141 O   0  0  0  0  0  0  0  0  0  0  0  0
  -24.2955   36.7947  -16.2186 N   0  0  0  0  0  0  0  0  0  0  0  0
  -27.4568   35.6691  -16.9433 O   0  0  0  0  0  0  0  0  0  0  0  0
  -25.6635   36.9854  -16.2748 N   0  0  0  0  0  0  0  0  0  0  0  0
  -23.3933   37.7798  -15.6922 C   0  0  0  0  0  0  0  0  0  0  0  0
  -26.2823   38.2587  -16.0363 C   0  0  0  0  0  0  0  0  0  0  0  0
  -27.6803   28.5352  -17.6351 H   0  0  0  0  0  0  0  0  0  0  0  0
  -26.3417   28.9399  -16.6507 H   0  0  0  0  0  0  0  0  0  0  0  0
  -26.5317   31.7899  -20.0738 H   0  0  0  0  0  0  0  0  0  0  0  0
  -24.8744   30.3314  -16.3633 H   0  0  0  0  0  0  0  0  0  0  0  0
  -26.2544   34.0953  -19.2981 H   0  0  0  0  0  0  0  0  0  0  0  0
  -24.5766   32.6337  -15.5847 H   0  0  0  0  0  0  0  0  0  0  0  0
  -22.3675   37.4030  -15.7266 H   0  0  0  0  0  0  0  0  0  0  0  0
  -23.4593   38.6924  -16.2902 H   0  0  0  0  0  0  0  0  0  0  0  0
  -23.6568   37.9916  -14.6523 H   0  0  0  0  0  0  0  0  0  0  0  0
  -27.3658   38.1758  -16.1574 H   0  0  0  0  0  0  0  0  0  0  0  0
  -25.9011   38.9862  -16.7581 H   0  0  0  0  0  0  0  0  0  0  0  0
  -26.0605   38.5878  -15.0179 H   0  0  0  0  0  0  0  0  0  0  0  0
  1  2  2  0  0  0  0
  1  3  2  0  0  0  0
  1  4  1  0  0  0  0
  1  5  1  0  0  0  0
  4 20  1  0  0  0  0
  4 21  1  0  0  0  0
  5  6  2  0  0  0  0
  5  7  1  0  0  0  0
  6  8  1  0  0  0  0
  6 22  1  0  0  0  0
  7  9  2  0  0  0  0
  7 23  1  0  0  0  0
  8 10  2  0  0  0  0
  8 24  1  0  0  0  0
  9 10  1  0  0  0  0
  9 25  1  0  0  0  0
 10 11  1  0  0  0  0
 11 12  1  0  0  0  0
 11 13  1  0  0  0  0
 12 14  2  0  0  0  0
 12 15  1  0  0  0  0
 13 16  2  0  0  0  0
 13 17  1  0  0  0  0
 15 18  1  0  0  0  0
 15 17  1  0  0  0  0
 17 19  1  0  0  0  0
 18 26  1  0  0  0  0
 18 27  1  0  0  0  0
 18 28  1  0  0  0  0
 19 29  1  0  0  0  0
 19 30  1  0  0  0  0
 19 31  1  0  0  0  0
M  END
>  <Column 1>
Cn1c(=O)n(-c2ccc(S(N)(=O)=O)cc2)c(=O)n1C ZINC000000033762

>  <Total Molweight>
284.295

>  <cLogP>
-1.2882

>  <cLogS>
-2.061

>  <H-Acceptors>
8

>  <H-Donors>
1

>  <Total Surface Area>
187.78

>  <MMFF94 Energy>
-64.05

> <Gold.Version>
5.8.1

> <Gold.Id.Protein>
ID|2FQT|mol2

> <Gold.PLP.Fitness>
56.5266

> <Gold.PLP.PLP>
-38.7486

> <Gold.PLP.part.hbond>
-2.9566

> <Gold.PLP.part.metal>
-1.9650

> <Gold.PLP.part.buried>
0.1943

> <Gold.PLP.part.nonpolar>
-34.9593

> <Gold.PLP.part.repulsive>
0.1738

> <Gold.PLP.ligand.clash>
0.0000

> <Gold.PLP.ligand.torsion>
2.2637

> <Gold.PLP.Chemscore.Hbond>
2.9440

> <Gold.PLP.Chemscore.CHOScore>
0.0000

> <Gold.PLP.Chemscore.Metal>
1.9265

> <Gold.Chemscore.Hbonds>
donor molecule, donor type, donor heavy atom, donor atom, acceptor molecule, acceptor atom, score
      L1  H     4    20       P1   403  1.00
      L1  H     4    21       P1   426  0.94
      P1  H   966  2177       L1     3  1.00
      P1  M  1222  1222       L1     3  0.94
      P1  M  1222  1222       L1     4  0.99

> <Gold.PLP.Chemscore.Internal.Correction>
1.9145

> <Gold.Protein.RotatedTorsions>
[ 1849  621  620  617 ] final  -21.51 input   60.00 | X-H torsion

> <Gold.Protein.ActiveResidues>
 HIS54   GLU57   HIS58   ALA61   PHE62   ILE76   ILE77   ASP78   ILE79   SER80  
 PRO81   GLN125  CYS126  GLY127  GLN128  HIS132  CO701  

> <Gold.Protein.RotatedAtoms>
  -19.6216   28.6025  -13.3530 H   0  0  0  0  0  0  0  0  0  0  0  0  # atno 1849 bound_to 621 
  -18.8987   27.3106  -14.0286 LP  0  0  0  0  0  0  0  0  0  0  0  0  # atno 2431 bound_to 621 
  -18.0562   28.2936  -13.0333 LP  0  0  0  0  0  0  0  0  0  0  0  0  # atno 2432 bound_to 621 

$$$$
Compound 175|DecoysActives|sdf|182|dock1
  -GOLD-   6112412153D 1   1.00000     0.00000

 33 35  0  0  0  0  0  0  0  0  1 V2000
  -25.6439   29.7834  -18.6400 S   0  0  0  0  0  0  0  0  0  0  0  0
  -27.0186   30.2343  -18.7513 O   0  0  0  0  0  0  0  0  0  0  0  0
  -24.6682   30.2787  -19.5929 O   0  0  0  0  0  0  0  0  0  0  0  0
  -25.0750   30.2911  -17.1083 N   0  0  0  0  0  0  0  0  0  0  0  0
  -25.5784   28.0542  -18.6853 C   0  0  0  0  0  0  0  0  0  0  0  0
  -25.2356   31.6697  -16.7507 C   0  0  0  0  0  0  0  0  0  0  0  0
  -26.8033   27.3264  -19.0718 C   0  0  0  0  0  0  0  0  0  0  0  0
  -24.4892   27.3482  -18.3208 C   0  0  0  0  0  0  0  0  0  0  0  0
  -25.8302   32.5800  -17.6278 C   0  0  0  0  0  0  0  0  0  0  0  0
  -24.7423   32.1061  -15.5045 C   0  0  0  0  0  0  0  0  0  0  0  0
  -27.8539   27.8974  -19.3523 O   0  0  0  0  0  0  0  0  0  0  0  0
  -26.7151   25.9614  -19.1125 N   0  0  0  0  0  0  0  0  0  0  0  0
  -24.5249   25.9687  -18.3908 N   0  0  0  0  0  0  0  0  0  0  0  0
  -23.1957   27.9149  -17.7985 C   0  0  0  0  0  0  0  0  0  0  0  0
  -25.9442   33.8912  -17.2144 C   0  0  0  0  0  0  0  0  0  0  0  0
  -24.8723   33.4422  -15.1110 C   0  0  0  0  0  0  0  0  0  0  0  0
  -25.6082   25.2373  -18.7862 C   0  0  0  0  0  0  0  0  0  0  0  0
  -26.4990   34.9051  -17.9313 O   0  0  0  0  0  0  0  0  0  0  0  0
  -25.4821   34.3098  -15.9893 C   0  0  0  0  0  0  0  0  0  0  0  0
  -25.5858   24.0137  -18.8364 O   0  0  0  0  0  0  0  0  0  0  0  0
  -26.3264   36.0107  -17.0208 C   0  0  0  0  0  0  0  0  0  0  0  0
  -25.6907   35.6363  -15.7803 O   0  0  0  0  0  0  0  0  0  0  0  0
  -25.4190   29.6262  -16.4054 H   0  0  0  0  0  0  0  0  0  0  0  0
  -26.1805   32.2871  -18.6112 H   0  0  0  0  0  0  0  0  0  0  0  0
  -24.2483   31.4098  -14.8303 H   0  0  0  0  0  0  0  0  0  0  0  0
  -27.5358   25.4417  -19.3844 H   0  0  0  0  0  0  0  0  0  0  0  0
  -23.7107   25.4190  -18.1329 H   0  0  0  0  0  0  0  0  0  0  0  0
  -23.3616   28.7619  -17.1262 H   0  0  0  0  0  0  0  0  0  0  0  0
  -22.5502   28.2219  -18.6273 H   0  0  0  0  0  0  0  0  0  0  0  0
  -22.6475   27.1709  -17.2089 H   0  0  0  0  0  0  0  0  0  0  0  0
  -24.4986   33.7869  -14.1533 H   0  0  0  0  0  0  0  0  0  0  0  0
  -25.7152   36.7773  -17.5109 H   0  0  0  0  0  0  0  0  0  0  0  0
  -27.3110   36.4361  -16.7953 H   0  0  0  0  0  0  0  0  0  0  0  0
  1  2  2  0  0  0  0
  1  3  2  0  0  0  0
  1  4  1  0  0  0  0
  1  5  1  0  0  0  0
  4  6  1  0  0  0  0
  4 23  1  0  0  0  0
  5  7  1  0  0  0  0
  5  8  2  0  0  0  0
  6  9  2  0  0  0  0
  6 10  1  0  0  0  0
  7 11  2  0  0  0  0
  7 12  1  0  0  0  0
  8 13  1  0  0  0  0
  8 14  1  0  0  0  0
  9 15  1  0  0  0  0
  9 24  1  0  0  0  0
 10 16  2  0  0  0  0
 10 25  1  0  0  0  0
 12 17  1  0  0  0  0
 12 26  1  0  0  0  0
 13 17  1  0  0  0  0
 13 27  1  0  0  0  0
 14 28  1  0  0  0  0
 14 29  1  0  0  0  0
 14 30  1  0  0  0  0
 15 18  1  0  0  0  0
 15 19  2  0  0  0  0
 16 19  1  0  0  0  0
 16 31  1  0  0  0  0
 17 20  2  0  0  0  0
 18 21  1  0  0  0  0
 19 22  1  0  0  0  0
 21 22  1  0  0  0  0
 21 32  1  0  0  0  0
 21 33  1  0  0  0  0
M  END
>  <Column 1>
Cc1[nH]c(=O)[nH]c(=O)c1S(=O)(=O)Nc1ccc2c(c1)OCO2 ZINC000000033806

>  <Total Molweight>
325.3

>  <cLogP>
0.1574

>  <cLogS>
-4.46

>  <H-Acceptors>
9

>  <H-Donors>
3

>  <Total Surface Area>
213.66

>  <MMFF94 Energy>
-142.49

> <Gold.Version>
5.8.1

> <Gold.Id.Protein>
ID|2FQT|mol2

> <Gold.PLP.Fitness>
53.0835

> <Gold.PLP.PLP>
-37.4009

> <Gold.PLP.part.hbond>
-2.0000

> <Gold.PLP.part.metal>
-1.4992

> <Gold.PLP.part.buried>
-4.8451

> <Gold.PLP.part.nonpolar>
-29.7751

> <Gold.PLP.part.repulsive>
0.2659

> <Gold.PLP.ligand.clash>
0.0000

> <Gold.PLP.ligand.torsion>
1.2510

> <Gold.PLP.Chemscore.Hbond>
1.3868

> <Gold.PLP.Chemscore.CHOScore>
0.0000

> <Gold.PLP.Chemscore.Metal>
1.9951

> <Gold.Chemscore.Hbonds>
donor molecule, donor type, donor heavy atom, donor atom, acceptor molecule, acceptor atom, score
      L1  H     4    23       P1   426  0.80
      P1  H   966  2177       L1    11  0.59
      P1  M  1222  1222       L1     2  1.00
      P1  M  1222  1222       L1    11  1.00

> <Gold.PLP.Chemscore.Internal.Correction>
2.0537

> <Gold.Protein.RotatedTorsions>
[ 1849  621  620  617 ] final  -36.82 input   60.00 | X-H torsion

> <Gold.Protein.ActiveResidues>
 HIS54   GLU57   HIS58   ALA61   PHE62   ILE76   ILE77   ASP78   ILE79   SER80  
 PRO81   GLN125  CYS126  GLY127  GLN128  HIS132  CO701  

> <Gold.Protein.RotatedAtoms>
  -19.7222   28.4347  -13.5078 H   0  0  0  0  0  0  0  0  0  0  0  0  # atno 1849 bound_to 621 
  -18.6580   27.2897  -13.9600 LP  0  0  0  0  0  0  0  0  0  0  0  0  # atno 2431 bound_to 621 
  -18.1957   28.4834  -12.9461 LP  0  0  0  0  0  0  0  0  0  0  0  0  # atno 2432 bound_to 621 

$$$$
Compound 176|DecoysActives|sdf|183|dock1
  -GOLD-   6112412153D 1   1.00000     0.00000

 30 32  0  0  0  0  0  0  0  0  1 V2000
  -26.3335   28.9415  -19.0913 S   0  0  0  0  0  0  0  0  0  0  0  0
  -27.3166   28.1302  -18.4061 O   0  0  0  0  0  0  0  0  0  0  0  0
  -26.3522   29.1409  -20.5245 O   0  0  0  0  0  0  0  0  0  0  0  0
  -26.1563   30.3787  -18.3250 N   0  0  0  0  0  0  0  0  0  0  0  0
  -24.7684   28.3174  -18.6766 C   0  0  0  0  0  0  0  0  0  0  0  0
  -24.9825   30.4567  -17.7534 C   0  0  0  0  0  0  0  0  0  0  0  0
  -24.1071   29.2684  -17.9219 C   0  0  0  0  0  0  0  0  0  0  0  0
  -24.2282   27.0908  -19.0160 C   0  0  0  0  0  0  0  0  0  0  0  0
  -24.6303   31.5863  -17.0542 N   0  0  0  0  0  0  0  0  0  0  0  0
  -22.8271   29.0063  -17.4643 C   0  0  0  0  0  0  0  0  0  0  0  0
  -22.9394   26.8218  -18.5576 C   0  0  0  0  0  0  0  0  0  0  0  0
  -25.3933   32.6932  -16.8735 N   0  0  0  0  0  0  0  0  0  0  0  0
  -22.2443   27.7725  -17.7877 C   0  0  0  0  0  0  0  0  0  0  0  0
  -24.7445   33.7908  -16.6386 C   0  0  0  0  0  0  0  0  0  0  0  0
  -25.4225   35.0883  -16.4181 C   0  0  0  0  0  0  0  0  0  0  0  0
  -24.6620   36.1150  -15.9678 N   0  0  0  0  0  0  0  0  0  0  0  0
  -26.7834   35.1904  -16.6786 C   0  0  0  0  0  0  0  0  0  0  0  0
  -25.2905   37.2925  -15.7703 C   0  0  0  0  0  0  0  0  0  0  0  0
  -27.4001   36.4200  -16.4638 C   0  0  0  0  0  0  0  0  0  0  0  0
  -26.6424   37.4918  -16.0016 C   0  0  0  0  0  0  0  0  0  0  0  0
  -24.7828   26.3729  -19.6110 H   0  0  0  0  0  0  0  0  0  0  0  0
  -23.6956   31.5343  -16.6535 H   0  0  0  0  0  0  0  0  0  0  0  0
  -22.2742   29.7262  -16.8692 H   0  0  0  0  0  0  0  0  0  0  0  0
  -22.4654   25.8716  -18.7953 H   0  0  0  0  0  0  0  0  0  0  0  0
  -21.2384   27.5484  -17.4368 H   0  0  0  0  0  0  0  0  0  0  0  0
  -23.6410   33.8050  -16.5921 H   0  0  0  0  0  0  0  0  0  0  0  0
  -27.3588   34.3449  -17.0384 H   0  0  0  0  0  0  0  0  0  0  0  0
  -24.6589   38.0996  -15.4091 H   0  0  0  0  0  0  0  0  0  0  0  0
  -28.4628   36.5434  -16.6550 H   0  0  0  0  0  0  0  0  0  0  0  0
  -27.0948   38.4619  -15.8250 H   0  0  0  0  0  0  0  0  0  0  0  0
  1  2  2  0  0  0  0
  1  3  2  0  0  0  0
  1  4  1  0  0  0  0
  1  5  1  0  0  0  0
  4  6  2  0  0  0  0
  5  7  2  0  0  0  0
  5  8  1  0  0  0  0
  6  9  1  0  0  0  0
  6  7  1  0  0  0  0
  7 10  1  0  0  0  0
  8 11  2  0  0  0  0
  8 21  1  0  0  0  0
  9 12  1  0  0  0  0
  9 22  1  0  0  0  0
 10 13  2  0  0  0  0
 10 23  1  0  0  0  0
 11 13  1  0  0  0  0
 11 24  1  0  0  0  0
 12 14  2  0  0  0  0
 13 25  1  0  0  0  0
 14 15  1  0  0  0  0
 14 26  1  0  0  0  0
 15 16  2  0  0  0  0
 15 17  1  0  0  0  0
 16 18  1  0  0  0  0
 17 19  2  0  0  0  0
 17 27  1  0  0  0  0
 18 20  2  0  0  0  0
 18 28  1  0  0  0  0
 19 20  1  0  0  0  0
 19 29  1  0  0  0  0
 20 30  1  0  0  0  0
M  END
>  <Column 1>
O=S1(=O)N=C(N/N=C/c2ccccn2)c2ccccc21 ZINC000000033995

>  <Total Molweight>
286.314

>  <cLogP>
1.8926

>  <cLogS>
-2.956

>  <H-Acceptors>
6

>  <H-Donors>
1

>  <Total Surface Area>
206.05

>  <MMFF94 Energy>
67.567

> <Gold.Version>
5.8.1

> <Gold.Id.Protein>
ID|2FQT|mol2

> <Gold.PLP.Fitness>
49.8675

> <Gold.PLP.PLP>
-36.1666

> <Gold.PLP.part.hbond>
-1.0000

> <Gold.PLP.part.metal>
-2.0000

> <Gold.PLP.part.buried>
-2.0325

> <Gold.PLP.part.nonpolar>
-32.1233

> <Gold.PLP.part.repulsive>
0.2296

> <Gold.PLP.ligand.clash>
0.0000

> <Gold.PLP.ligand.torsion>
0.0903

> <Gold.PLP.Chemscore.Hbond>
0.6880

> <Gold.PLP.Chemscore.CHOScore>
0.0000

> <Gold.PLP.Chemscore.Metal>
1.9693

> <Gold.Chemscore.Hbonds>
donor molecule, donor type, donor heavy atom, donor atom, acceptor molecule, acceptor atom, score
      P1  H   966  2177       L1     3  0.69
      P1  M  1222  1222       L1     2  1.00
      P1  M  1222  1222       L1     4  0.97

> <Gold.PLP.Chemscore.Internal.Correction>
0.0015

> <Gold.Protein.RotatedTorsions>
[ 1849  621  620  617 ] final -125.00 input   60.00 | X-H torsion

> <Gold.Protein.ActiveResidues>
 HIS54   GLU57   HIS58   ALA61   PHE62   ILE76   ILE77   ASP78   ILE79   SER80  
 PRO81   GLN125  CYS126  GLY127  GLN128  HIS132  CO701  

> <Gold.Protein.RotatedAtoms>
  -19.1532   27.3968  -14.0523 H   0  0  0  0  0  0  0  0  0  0  0  0  # atno 1849 bound_to 621 
  -17.9700   28.0717  -13.1621 LP  0  0  0  0  0  0  0  0  0  0  0  0  # atno 2431 bound_to 621 
  -19.4566   28.7466  -13.1956 LP  0  0  0  0  0  0  0  0  0  0  0  0  # atno 2432 bound_to 621 

$$$$
Compound 177|DecoysActives|sdf|184|dock8
  -GOLD-   6112412163D 1   1.00000     0.00000

 38 39  0  0  0  0  0  0  0  0  1 V2000
  -20.3452   31.5522  -15.1607 S   0  0  0  0  0  0  0  0  0  0  0  0
  -21.6052   30.4678  -15.0529 C   0  0  0  0  0  0  0  0  0  0  0  0
  -22.9025   30.6419  -15.4765 N   0  0  0  0  0  0  0  0  0  0  0  0
  -21.3789   29.2478  -14.4863 N   0  0  0  0  0  0  0  0  0  0  0  0
  -23.3150   31.7988  -16.0667 N   0  0  0  0  0  0  0  0  0  0  0  0
  -24.4785   32.2332  -15.6944 C   0  0  0  0  0  0  0  0  0  0  0  0
  -25.0569   33.4774  -16.2496 C   0  0  0  0  0  0  0  0  0  0  0  0
  -25.3653   33.5727  -17.6128 C   0  0  0  0  0  0  0  0  0  0  0  0
  -25.2987   34.5589  -15.3991 C   0  0  0  0  0  0  0  0  0  0  0  0
  -25.1127   32.4674  -18.3851 O   0  0  0  0  0  0  0  0  0  0  0  0
  -25.9107   34.7726  -18.0974 C   0  0  0  0  0  0  0  0  0  0  0  0
  -25.8446   35.7420  -15.9048 C   0  0  0  0  0  0  0  0  0  0  0  0
  -25.5804   32.4811  -19.7286 C   0  0  0  0  0  0  0  0  0  0  0  0
  -26.1541   35.8819  -17.2635 C   0  0  0  0  0  0  0  0  0  0  0  0
  -26.7015   37.0489  -17.7894 N   0  0  0  0  0  0  0  0  0  0  0  0
  -27.1326   38.1373  -16.8925 C   0  0  0  0  0  0  0  0  0  0  0  0
  -26.2037   37.5170  -19.0989 C   0  0  0  0  0  0  0  0  0  0  0  0
  -28.0846   39.0917  -17.6298 C   0  0  0  0  0  0  0  0  0  0  0  0
  -27.1965   38.5084  -19.7263 C   0  0  0  0  0  0  0  0  0  0  0  0
  -27.4968   39.5963  -18.8390 O   0  0  0  0  0  0  0  0  0  0  0  0
  -23.5726   29.8953  -15.3486 H   0  0  0  0  0  0  0  0  0  0  0  0
  -20.4451   29.0468  -14.1495 H   0  0  0  0  0  0  0  0  0  0  0  0
  -22.0868   28.5378  -14.3841 H   0  0  0  0  0  0  0  0  0  0  0  0
  -25.0786   31.6853  -14.9471 H   0  0  0  0  0  0  0  0  0  0  0  0
  -25.0627   34.4920  -14.3385 H   0  0  0  0  0  0  0  0  0  0  0  0
  -26.1933   34.8601  -19.1409 H   0  0  0  0  0  0  0  0  0  0  0  0
  -26.0005   36.5610  -15.2082 H   0  0  0  0  0  0  0  0  0  0  0  0
  -26.6726   32.5505  -19.7656 H   0  0  0  0  0  0  0  0  0  0  0  0
  -25.2924   31.5322  -20.1913 H   0  0  0  0  0  0  0  0  0  0  0  0
  -25.1101   33.2864  -20.3024 H   0  0  0  0  0  0  0  0  0  0  0  0
  -26.2501   38.6954  -16.5562 H   0  0  0  0  0  0  0  0  0  0  0  0
  -27.6560   37.7405  -16.0147 H   0  0  0  0  0  0  0  0  0  0  0  0
  -25.2396   38.0171  -18.9427 H   0  0  0  0  0  0  0  0  0  0  0  0
  -26.0446   36.6971  -19.8065 H   0  0  0  0  0  0  0  0  0  0  0  0
  -28.3177   39.9496  -16.9908 H   0  0  0  0  0  0  0  0  0  0  0  0
  -29.0299   38.5923  -17.8745 H   0  0  0  0  0  0  0  0  0  0  0  0
  -26.7676   38.9341  -20.6390 H   0  0  0  0  0  0  0  0  0  0  0  0
  -28.1312   38.0049  -20.0014 H   0  0  0  0  0  0  0  0  0  0  0  0
  1  2  2  0  0  0  0
  2  3  1  0  0  0  0
  2  4  1  0  0  0  0
  3  5  1  0  0  0  0
  3 21  1  0  0  0  0
  4 22  1  0  0  0  0
  4 23  1  0  0  0  0
  5  6  2  0  0  0  0
  6  7  1  0  0  0  0
  6 24  1  0  0  0  0
  7  8  2  0  0  0  0
  7  9  1  0  0  0  0
  8 10  1  0  0  0  0
  8 11  1  0  0  0  0
  9 12  2  0  0  0  0
  9 25  1  0  0  0  0
 10 13  1  0  0  0  0
 11 14  2  0  0  0  0
 11 26  1  0  0  0  0
 12 14  1  0  0  0  0
 12 27  1  0  0  0  0
 13 28  1  0  0  0  0
 13 29  1  0  0  0  0
 13 30  1  0  0  0  0
 14 15  1  0  0  0  0
 15 16  1  0  0  0  0
 15 17  1  0  0  0  0
 16 18  1  0  0  0  0
 16 31  1  0  0  0  0
 16 32  1  0  0  0  0
 17 19  1  0  0  0  0
 17 33  1  0  0  0  0
 17 34  1  0  0  0  0
 18 20  1  0  0  0  0
 18 35  1  0  0  0  0
 18 36  1  0  0  0  0
 19 20  1  0  0  0  0
 19 37  1  0  0  0  0
 19 38  1  0  0  0  0
M  END
>  <Column 1>
COc1cc(N2CCOCC2)ccc1/C=N/NC(N)=S ZINC000000034068

>  <Total Molweight>
294.378

>  <cLogP>
1.131

>  <cLogS>
-3.019

>  <H-Acceptors>
6

>  <H-Donors>
2

>  <Total Surface Area>
234.81

>  <MMFF94 Energy>
88.807

> <Gold.Version>
5.8.1

> <Gold.Id.Protein>
ID|2FQT|mol2

> <Gold.PLP.Fitness>
47.3193

> <Gold.PLP.PLP>
-43.4481

> <Gold.PLP.part.hbond>
-3.9856

> <Gold.PLP.part.metal>
0.0000

> <Gold.PLP.part.buried>
-4.2279

> <Gold.PLP.part.nonpolar>
-36.4524

> <Gold.PLP.part.repulsive>
0.1958

> <Gold.PLP.ligand.clash>
0.0000

> <Gold.PLP.ligand.torsion>
1.1696

> <Gold.PLP.Chemscore.Hbond>
1.9814

> <Gold.PLP.Chemscore.CHOScore>
0.0000

> <Gold.PLP.Chemscore.Metal>
0.0000

> <Gold.Chemscore.Hbonds>
donor molecule, donor type, donor heavy atom, donor atom, acceptor molecule, acceptor atom, score
      L1  H     3    21       P1   427  0.09
      L1  H     4    22       P1   621  0.98
      L1  H     4    23       P1   427  0.91

> <Gold.PLP.Chemscore.Internal.Correction>
0.2663

> <Gold.Protein.RotatedTorsions>
[ 1849  621  620  617 ] final   88.89 input   60.00 | X-H torsion

> <Gold.Protein.ActiveResidues>
 HIS54   GLU57   HIS58   ALA61   PHE62   ILE76   ILE77   ASP78   ILE79   SER80  
 PRO81   GLN125  CYS126  GLY127  GLN128  HIS132  CO701  

> <Gold.Protein.RotatedAtoms>
  -18.1432   28.4117  -12.9762 H   0  0  0  0  0  0  0  0  0  0  0  0  # atno 1849 bound_to 621 
  -19.6967   28.5053  -13.4514 LP  0  0  0  0  0  0  0  0  0  0  0  0  # atno 2431 bound_to 621 
  -18.7470   27.2910  -13.9899 LP  0  0  0  0  0  0  0  0  0  0  0  0  # atno 2432 bound_to 621 

$$$$
Compound 178|DecoysActives|sdf|185|dock2
  -GOLD-   6112412163D 1   1.00000     0.00000

 33 35  0  0  0  0  0  0  0  0  1 V2000
  -25.8912   29.4705  -18.8860 S   0  0  0  0  0  0  0  0  0  0  0  0
  -24.5657   28.9280  -19.0704 O   0  0  0  0  0  0  0  0  0  0  0  0
  -26.8850   29.4624  -19.9341 O   0  0  0  0  0  0  0  0  0  0  0  0
  -26.5669   28.6214  -17.6053 N   0  0  0  0  0  0  0  0  0  0  0  0
  -25.7647   31.1023  -18.2162 C   0  0  0  0  0  0  0  0  0  0  0  0
  -26.1672   32.1961  -18.9831 C   0  0  0  0  0  0  0  0  0  0  0  0
  -25.3079   31.2836  -16.9100 C   0  0  0  0  0  0  0  0  0  0  0  0
  -26.0898   33.4832  -18.4414 C   0  0  0  0  0  0  0  0  0  0  0  0
  -25.2350   32.5749  -16.3762 C   0  0  0  0  0  0  0  0  0  0  0  0
  -25.6219   33.6934  -17.1328 C   0  0  0  0  0  0  0  0  0  0  0  0
  -25.5425   35.0384  -16.5655 C   0  0  0  0  0  0  0  0  0  0  0  0
  -26.3137   35.9942  -17.1651 O   0  0  0  0  0  0  0  0  0  0  0  0
  -24.8436   35.6114  -15.5205 C   0  0  0  0  0  0  0  0  0  0  0  0
  -26.1122   37.1737  -16.5083 C   0  0  0  0  0  0  0  0  0  0  0  0
  -25.2093   36.9807  -15.4830 C   0  0  0  0  0  0  0  0  0  0  0  0
  -26.8145   38.3519  -16.9457 C   0  0  0  0  0  0  0  0  0  0  0  0
  -27.3420   38.4115  -18.1230 N   0  0  0  0  0  0  0  0  0  0  0  0
  -27.9907   39.5569  -18.4715 N   0  0  0  0  0  0  0  0  0  0  0  0
  -27.9513   40.3442  -19.5951 C   0  0  0  0  0  0  0  0  0  0  0  0
  -28.8999   40.1881  -17.6614 C   0  0  0  0  0  0  0  0  0  0  0  0
  -28.7702   41.3654  -19.4726 N   0  0  0  0  0  0  0  0  0  0  0  0
  -29.3730   41.2658  -18.2438 N   0  0  0  0  0  0  0  0  0  0  0  0
  -27.5841   28.6953  -17.6401 H   0  0  0  0  0  0  0  0  0  0  0  0
  -26.1607   28.9410  -16.7257 H   0  0  0  0  0  0  0  0  0  0  0  0
  -26.5414   32.0607  -19.9955 H   0  0  0  0  0  0  0  0  0  0  0  0
  -25.0091   30.4324  -16.3020 H   0  0  0  0  0  0  0  0  0  0  0  0
  -26.4051   34.3267  -19.0540 H   0  0  0  0  0  0  0  0  0  0  0  0
  -24.8726   32.6922  -15.3576 H   0  0  0  0  0  0  0  0  0  0  0  0
  -24.1530   35.1062  -14.8601 H   0  0  0  0  0  0  0  0  0  0  0  0
  -24.8545   37.7313  -14.7902 H   0  0  0  0  0  0  0  0  0  0  0  0
  -26.8585   39.1705  -16.2078 H   0  0  0  0  0  0  0  0  0  0  0  0
  -27.3347   40.1517  -20.4579 H   0  0  0  0  0  0  0  0  0  0  0  0
  -29.1619   39.8138  -16.6838 H   0  0  0  0  0  0  0  0  0  0  0  0
  1  2  2  0  0  0  0
  1  3  2  0  0  0  0
  1  4  1  0  0  0  0
  1  5  1  0  0  0  0
  4 23  1  0  0  0  0
  4 24  1  0  0  0  0
  5  6  2  0  0  0  0
  5  7  1  0  0  0  0
  6  8  1  0  0  0  0
  6 25  1  0  0  0  0
  7  9  2  0  0  0  0
  7 26  1  0  0  0  0
  8 10  2  0  0  0  0
  8 27  1  0  0  0  0
  9 10  1  0  0  0  0
  9 28  1  0  0  0  0
 10 11  1  0  0  0  0
 11 12  1  0  0  0  0
 11 13  2  0  0  0  0
 12 14  1  0  0  0  0
 13 15  1  0  0  0  0
 13 29  1  0  0  0  0
 14 16  1  0  0  0  0
 14 15  2  0  0  0  0
 15 30  1  0  0  0  0
 16 17  2  0  0  0  0
 16 31  1  0  0  0  0
 17 18  1  0  0  0  0
 18 19  1  0  0  0  0
 18 20  1  0  0  0  0
 19 21  2  0  0  0  0
 19 32  1  0  0  0  0
 20 22  2  0  0  0  0
 20 33  1  0  0  0  0
 21 22  1  0  0  0  0
M  END
>  <Column 1>
NS(=O)(=O)c1ccc(-c2ccc(/C=N/n3cnnc3)o2)cc1 ZINC000000034100

>  <Total Molweight>
317.328

>  <cLogP>
0.9312

>  <cLogS>
-5.669

>  <H-Acceptors>
8

>  <H-Donors>
1

>  <Total Surface Area>
231.05

>  <MMFF94 Energy>
-25.442

> <Gold.Version>
5.8.1

> <Gold.Id.Protein>
ID|2FQT|mol2

> <Gold.PLP.Fitness>
66.2309

> <Gold.PLP.PLP>
-47.3677

> <Gold.PLP.part.hbond>
-2.0000

> <Gold.PLP.part.metal>
-2.0000

> <Gold.PLP.part.buried>
-2.7203

> <Gold.PLP.part.nonpolar>
-42.5924

> <Gold.PLP.part.repulsive>
0.2004

> <Gold.PLP.ligand.clash>
0.0000

> <Gold.PLP.ligand.torsion>
1.7876

> <Gold.PLP.Chemscore.Hbond>
2.9193

> <Gold.PLP.Chemscore.CHOScore>
0.0000

> <Gold.PLP.Chemscore.Metal>
1.9559

> <Gold.Chemscore.Hbonds>
donor molecule, donor type, donor heavy atom, donor atom, acceptor molecule, acceptor atom, score
      L1  H     4    23       P1   403  0.99
      L1  H     4    24       P1   426  0.93
      P1  H   966  2177       L1     3  1.00
      P1  M  1222  1222       L1     3  0.97
      P1  M  1222  1222       L1     4  0.99

> <Gold.PLP.Chemscore.Internal.Correction>
1.9454

> <Gold.Protein.RotatedTorsions>
[ 1849  621  620  617 ] final   -4.23 input   60.00 | X-H torsion

> <Gold.Protein.ActiveResidues>
 HIS54   GLU57   HIS58   ALA61   PHE62   ILE76   ILE77   ASP78   ILE79   SER80  
 PRO81   GLN125  CYS126  GLY127  GLN128  HIS132  CO701  

> <Gold.Protein.RotatedAtoms>
  -19.4438   28.7458  -13.1887 H   0  0  0  0  0  0  0  0  0  0  0  0  # atno 1849 bound_to 621 
  -19.1663   27.3987  -14.0584 LP  0  0  0  0  0  0  0  0  0  0  0  0  # atno 2431 bound_to 621 
  -17.9677   28.0611  -13.1689 LP  0  0  0  0  0  0  0  0  0  0  0  0  # atno 2432 bound_to 621 

$$$$
Compound 179|DecoysActives|sdf|186|dock2
  -GOLD-   6112412163D 1   1.00000     0.00000

 34 36  0  0  0  0  0  0  0  0  1 V2000
  -25.2359   30.0129  -18.2450 S   0  0  0  0  0  0  0  0  0  0  0  0
  -24.0559   29.6265  -17.5075 O   0  0  0  0  0  0  0  0  0  0  0  0
  -25.3853   29.7584  -19.6586 O   0  0  0  0  0  0  0  0  0  0  0  0
  -26.5260   29.2407  -17.4973 N   0  0  0  0  0  0  0  0  0  0  0  0
  -25.5946   31.7142  -17.9165 C   0  0  0  0  0  0  0  0  0  0  0  0
  -26.1951   32.4939  -18.9129 C   0  0  0  0  0  0  0  0  0  0  0  0
  -25.3061   32.2511  -16.6555 C   0  0  0  0  0  0  0  0  0  0  0  0
  -26.4830   33.8341  -18.6574 C   0  0  0  0  0  0  0  0  0  0  0  0
  -25.5932   33.5911  -16.3958 C   0  0  0  0  0  0  0  0  0  0  0  0
  -26.1670   34.3712  -17.4048 C   0  0  0  0  0  0  0  0  0  0  0  0
  -26.4390   35.7292  -17.1505 N   0  0  0  0  0  0  0  0  0  0  0  0
  -26.4885   36.7699  -18.0686 C   0  0  0  0  0  0  0  0  0  0  0  0
  -26.7184   36.2218  -15.8943 C   0  0  0  0  0  0  0  0  0  0  0  0
  -26.8409   37.9113  -17.3583 C   0  0  0  0  0  0  0  0  0  0  0  0
  -26.2159   36.7081  -19.4875 C   0  0  0  0  0  0  0  0  0  0  0  0
  -26.9795   37.5670  -15.9957 C   0  0  0  0  0  0  0  0  0  0  0  0
  -26.2197   37.7698  -20.2172 N   0  0  0  0  0  0  0  0  0  0  0  0
  -25.9581   37.6398  -21.5454 N   0  0  0  0  0  0  0  0  0  0  0  0
  -25.5488   38.5290  -22.5063 C   0  0  0  0  0  0  0  0  0  0  0  0
  -26.0799   36.4543  -22.2241 C   0  0  0  0  0  0  0  0  0  0  0  0
  -25.4344   37.9286  -23.6706 N   0  0  0  0  0  0  0  0  0  0  0  0
  -25.7721   36.6100  -23.4909 N   0  0  0  0  0  0  0  0  0  0  0  0
  -27.3122   29.8859  -17.4096 H   0  0  0  0  0  0  0  0  0  0  0  0
  -26.2224   28.8429  -16.6079 H   0  0  0  0  0  0  0  0  0  0  0  0
  -26.4335   32.0663  -19.8844 H   0  0  0  0  0  0  0  0  0  0  0  0
  -24.8550   31.6363  -15.8797 H   0  0  0  0  0  0  0  0  0  0  0  0
  -26.9390   34.4471  -19.4308 H   0  0  0  0  0  0  0  0  0  0  0  0
  -25.3582   34.0168  -15.4232 H   0  0  0  0  0  0  0  0  0  0  0  0
  -26.7217   35.5636  -15.0347 H   0  0  0  0  0  0  0  0  0  0  0  0
  -26.9709   38.9010  -17.7797 H   0  0  0  0  0  0  0  0  0  0  0  0
  -26.0201   35.6961  -19.8828 H   0  0  0  0  0  0  0  0  0  0  0  0
  -27.2396   38.2259  -15.1765 H   0  0  0  0  0  0  0  0  0  0  0  0
  -25.3500   39.5736  -22.3295 H   0  0  0  0  0  0  0  0  0  0  0  0
  -26.3910   35.5407  -21.7407 H   0  0  0  0  0  0  0  0  0  0  0  0
  1  2  2  0  0  0  0
  1  3  2  0  0  0  0
  1  4  1  0  0  0  0
  1  5  1  0  0  0  0
  4 23  1  0  0  0  0
  4 24  1  0  0  0  0
  5  6  2  0  0  0  0
  5  7  1  0  0  0  0
  6  8  1  0  0  0  0
  6 25  1  0  0  0  0
  7  9  2  0  0  0  0
  7 26  1  0  0  0  0
  8 10  2  0  0  0  0
  8 27  1  0  0  0  0
  9 10  1  0  0  0  0
  9 28  1  0  0  0  0
 10 11  1  0  0  0  0
 11 12  1  0  0  0  0
 11 13  1  0  0  0  0
 12 14  2  0  0  0  0
 12 15  1  0  0  0  0
 13 16  2  0  0  0  0
 13 29  1  0  0  0  0
 14 16  1  0  0  0  0
 14 30  1  0  0  0  0
 15 17  2  0  0  0  0
 15 31  1  0  0  0  0
 16 32  1  0  0  0  0
 17 18  1  0  0  0  0
 18 19  1  0  0  0  0
 18 20  1  0  0  0  0
 19 21  2  0  0  0  0
 19 33  1  0  0  0  0
 20 22  2  0  0  0  0
 20 34  1  0  0  0  0
 21 22  1  0  0  0  0
M  END
>  <Column 1>
NS(=O)(=O)c1ccc(-n2cccc2/C=N/n2cnnc2)cc1 ZINC000000034102

>  <Total Molweight>
316.344

>  <cLogP>
0.2312

>  <cLogS>
-6.546

>  <H-Acceptors>
8

>  <H-Donors>
1

>  <Total Surface Area>
230.56

>  <MMFF94 Energy>
-25.679

> <Gold.Version>
5.8.1

> <Gold.Id.Protein>
ID|2FQT|mol2

> <Gold.PLP.Fitness>
64.5823

> <Gold.PLP.PLP>
-47.9922

> <Gold.PLP.part.hbond>
-1.0000

> <Gold.PLP.part.metal>
-1.0000

> <Gold.PLP.part.buried>
-6.4882

> <Gold.PLP.part.nonpolar>
-39.8202

> <Gold.PLP.part.repulsive>
0.4123

> <Gold.PLP.ligand.clash>
0.0000

> <Gold.PLP.ligand.torsion>
1.3915

> <Gold.PLP.Chemscore.Hbond>
1.6012

> <Gold.PLP.Chemscore.CHOScore>
1.9852

> <Gold.PLP.Chemscore.Metal>
1.0000

> <Gold.Chemscore.Hbonds>
donor molecule, donor type, donor heavy atom, donor atom, acceptor molecule, acceptor atom, score
      L1  H     4    23       P1   437  0.60
      L1  H     4    24       P1   426  1.00
      L1  C    13    29       P1   431  0.99
      L1  C    20    34       P1   954  1.00
      P1  M  1222  1222       L1     4  1.00

> <Gold.PLP.Chemscore.Internal.Correction>
2.6140

> <Gold.Protein.RotatedTorsions>
[ 1849  621  620  617 ] final  108.64 input   60.00 | X-H torsion

> <Gold.Protein.ActiveResidues>
 HIS54   GLU57   HIS58   ALA61   PHE62   ILE76   ILE77   ASP78   ILE79   SER80  
 PRO81   GLN125  CYS126  GLY127  GLN128  HIS132  CO701  

> <Gold.Protein.RotatedAtoms>
  -18.0015   28.1563  -13.1095 H   0  0  0  0  0  0  0  0  0  0  0  0  # atno 1849 bound_to 621 
  -19.5287   28.6991  -13.2546 LP  0  0  0  0  0  0  0  0  0  0  0  0  # atno 2431 bound_to 621 
  -19.0578   27.3544  -14.0525 LP  0  0  0  0  0  0  0  0  0  0  0  0  # atno 2432 bound_to 621 

$$$$
Compound 180|DecoysActives|sdf|187|dock12
  -GOLD-   6112412163D 1   1.00000     0.00000

 31 32  0  0  0  0  0  0  0  0  1 V2000
  -23.5104   30.1396  -17.3528 O   0  0  0  0  0  0  0  0  0  0  0  0
  -24.6286   30.3602  -18.1299 C   0  0  0  0  0  0  0  0  0  0  0  0
  -23.3603   31.0830  -16.3007 C   0  0  0  0  0  0  0  0  0  0  0  0
  -25.3411   29.2729  -18.3755 N   0  0  0  0  0  0  0  0  0  0  0  0
  -24.9031   31.5888  -18.5581 N   0  0  0  0  0  0  0  0  0  0  0  0
  -26.4114   29.5005  -19.1223 C   0  0  0  0  0  0  0  0  0  0  0  0
  -25.9993   31.6942  -19.2966 C   0  0  0  0  0  0  0  0  0  0  0  0
  -27.2486   28.4565  -19.4575 O   0  0  0  0  0  0  0  0  0  0  0  0
  -26.7874   30.6780  -19.6063 N   0  0  0  0  0  0  0  0  0  0  0  0
  -26.3744   32.9123  -19.7883 N   0  0  0  0  0  0  0  0  0  0  0  0
  -26.8015   27.1984  -18.9694 C   0  0  0  0  0  0  0  0  0  0  0  0
  -25.5796   34.0896  -19.5833 C   0  0  0  0  0  0  0  0  0  0  0  0
  -25.8506   34.6524  -18.2165 C   0  0  0  0  0  0  0  0  0  0  0  0
  -25.3482   34.0390  -17.0740 C   0  0  0  0  0  0  0  0  0  0  0  0
  -26.5906   35.8267  -18.0431 C   0  0  0  0  0  0  0  0  0  0  0  0
  -25.5470   34.4969  -15.8169 N   0  0  0  0  0  0  0  0  0  0  0  0
  -26.8082   36.3229  -16.7614 C   0  0  0  0  0  0  0  0  0  0  0  0
  -26.2727   35.6282  -15.6901 C   0  0  0  0  0  0  0  0  0  0  0  0
  -22.4514   30.8253  -15.7484 H   0  0  0  0  0  0  0  0  0  0  0  0
  -23.2342   32.0987  -16.6916 H   0  0  0  0  0  0  0  0  0  0  0  0
  -24.2002   31.0334  -15.5988 H   0  0  0  0  0  0  0  0  0  0  0  0
  -27.2239   32.9267  -20.3325 H   0  0  0  0  0  0  0  0  0  0  0  0
  -27.5247   26.4411  -19.2874 H   0  0  0  0  0  0  0  0  0  0  0  0
  -25.8295   26.9281  -19.3961 H   0  0  0  0  0  0  0  0  0  0  0  0
  -26.7682   27.1852  -17.8743 H   0  0  0  0  0  0  0  0  0  0  0  0
  -24.5091   33.8601  -19.6631 H   0  0  0  0  0  0  0  0  0  0  0  0
  -25.8022   34.8447  -20.3475 H   0  0  0  0  0  0  0  0  0  0  0  0
  -24.7494   33.1337  -17.1347 H   0  0  0  0  0  0  0  0  0  0  0  0
  -26.9935   36.3560  -18.9035 H   0  0  0  0  0  0  0  0  0  0  0  0
  -27.3794   37.2306  -16.6019 H   0  0  0  0  0  0  0  0  0  0  0  0
  -26.4149   35.9750  -14.6706 H   0  0  0  0  0  0  0  0  0  0  0  0
  1  2  1  0  0  0  0
  1  3  1  0  0  0  0
  2  4  2  0  0  0  0
  2  5  1  0  0  0  0
  3 19  1  0  0  0  0
  3 20  1  0  0  0  0
  3 21  1  0  0  0  0
  4  6  1  0  0  0  0
  5  7  2  0  0  0  0
  6  8  1  0  0  0  0
  6  9  2  0  0  0  0
  7 10  1  0  0  0  0
  7  9  1  0  0  0  0
  8 11  1  0  0  0  0
 10 12  1  0  0  0  0
 10 22  1  0  0  0  0
 11 23  1  0  0  0  0
 11 24  1  0  0  0  0
 11 25  1  0  0  0  0
 12 13  1  0  0  0  0
 12 26  1  0  0  0  0
 12 27  1  0  0  0  0
 13 14  2  0  0  0  0
 13 15  1  0  0  0  0
 14 16  1  0  0  0  0
 14 28  1  0  0  0  0
 15 17  2  0  0  0  0
 15 29  1  0  0  0  0
 16 18  2  0  0  0  0
 17 18  1  0  0  0  0
 17 30  1  0  0  0  0
 18 31  1  0  0  0  0
M  END
>  <Column 1>
COc1nc(NCc2cccnc2)nc(OC)n1 ZINC000000034188

>  <Total Molweight>
247.257

>  <cLogP>
1.0054

>  <cLogS>
-2.426

>  <H-Acceptors>
7

>  <H-Donors>
1

>  <Total Surface Area>
197.8

>  <MMFF94 Energy>
-190.87

> <Gold.Version>
5.8.1

> <Gold.Id.Protein>
ID|2FQT|mol2

> <Gold.PLP.Fitness>
53.7661

> <Gold.PLP.PLP>
-33.9973

> <Gold.PLP.part.hbond>
-2.0000

> <Gold.PLP.part.metal>
-2.0000

> <Gold.PLP.part.buried>
-0.3141

> <Gold.PLP.part.nonpolar>
-30.9178

> <Gold.PLP.part.repulsive>
0.4811

> <Gold.PLP.ligand.clash>
0.0000

> <Gold.PLP.ligand.torsion>
0.4744

> <Gold.PLP.Chemscore.Hbond>
1.9040

> <Gold.PLP.Chemscore.CHOScore>
1.0000

> <Gold.PLP.Chemscore.Metal>
1.9949

> <Gold.Chemscore.Hbonds>
donor molecule, donor type, donor heavy atom, donor atom, acceptor molecule, acceptor atom, score
      L1  H    10    22       P1   954  0.93
      P1  H   966  2177       L1     8  0.98
      L1  C    18    31       P1   431  1.00
      P1  M  1222  1222       L1     8  1.00
      P1  M  1222  1222       L1     9  1.00

> <Gold.PLP.Chemscore.Internal.Correction>
0.0364

> <Gold.Protein.RotatedTorsions>
[ 1849  621  620  617 ] final  -76.34 input   60.00 | X-H torsion

> <Gold.Protein.ActiveResidues>
 HIS54   GLU57   HIS58   ALA61   PHE62   ILE76   ILE77   ASP78   ILE79   SER80  
 PRO81   GLN125  CYS126  GLY127  GLN128  HIS132  CO701  

> <Gold.Protein.RotatedAtoms>
  -19.6940   27.9157  -13.8691 H   0  0  0  0  0  0  0  0  0  0  0  0  # atno 1849 bound_to 621 
  -18.1415   27.4846  -13.6413 LP  0  0  0  0  0  0  0  0  0  0  0  0  # atno 2431 bound_to 621 
  -18.7406   28.8111  -12.9009 LP  0  0  0  0  0  0  0  0  0  0  0  0  # atno 2432 bound_to 621 

$$$$
Compound 181|DecoysActives|sdf|188|dock1
  -GOLD-   6112412163D 1   1.00000     0.00000

 35 37  0  0  0  0  0  0  0  0  1 V2000
  -25.5980   30.5476  -19.2242 S   0  0  0  0  0  0  0  0  0  0  0  0
  -26.9822   30.7747  -19.5798 O   0  0  0  0  0  0  0  0  0  0  0  0
  -24.5778   30.9948  -20.1581 O   0  0  0  0  0  0  0  0  0  0  0  0
  -25.2875   31.4698  -17.8330 N   0  0  0  0  0  0  0  0  0  0  0  0
  -25.2887   28.8884  -18.8145 C   0  0  0  0  0  0  0  0  0  0  0  0
  -25.6486   32.8488  -17.7982 C   0  0  0  0  0  0  0  0  0  0  0  0
  -26.3634   27.8820  -18.9846 C   0  0  0  0  0  0  0  0  0  0  0  0
  -24.0907   28.4780  -18.3417 C   0  0  0  0  0  0  0  0  0  0  0  0
  -26.2533   33.4339  -18.9026 C   0  0  0  0  0  0  0  0  0  0  0  0
  -25.4460   33.6508  -16.6832 C   0  0  0  0  0  0  0  0  0  0  0  0
  -27.5159   28.1506  -19.2996 O   0  0  0  0  0  0  0  0  0  0  0  0
  -26.0230   26.5798  -18.7275 N   0  0  0  0  0  0  0  0  0  0  0  0
  -23.8866   27.1376  -18.0776 N   0  0  0  0  0  0  0  0  0  0  0  0
  -22.8929   29.3430  -18.0445 C   0  0  0  0  0  0  0  0  0  0  0  0
  -26.6126   34.7364  -18.9794 N   0  0  0  0  0  0  0  0  0  0  0  0
  -25.8052   35.0067  -16.7211 C   0  0  0  0  0  0  0  0  0  0  0  0
  -24.8169   26.1565  -18.2629 C   0  0  0  0  0  0  0  0  0  0  0  0
  -26.3902   35.5115  -17.9027 C   0  0  0  0  0  0  0  0  0  0  0  0
  -25.5909   35.8533  -15.6201 C   0  0  0  0  0  0  0  0  0  0  0  0
  -24.5770   24.9806  -18.0181 O   0  0  0  0  0  0  0  0  0  0  0  0
  -26.7428   36.8538  -17.9389 C   0  0  0  0  0  0  0  0  0  0  0  0
  -25.9538   37.1969  -15.6839 C   0  0  0  0  0  0  0  0  0  0  0  0
  -26.5313   37.6985  -16.8450 C   0  0  0  0  0  0  0  0  0  0  0  0
  -25.3681   30.9204  -16.9786 H   0  0  0  0  0  0  0  0  0  0  0  0
  -26.4679   32.8615  -19.8003 H   0  0  0  0  0  0  0  0  0  0  0  0
  -25.0115   33.2392  -15.7747 H   0  0  0  0  0  0  0  0  0  0  0  0
  -26.7404   25.8813  -18.8500 H   0  0  0  0  0  0  0  0  0  0  0  0
  -22.9910   26.8080  -17.7297 H   0  0  0  0  0  0  0  0  0  0  0  0
  -22.2931   28.9131  -17.2333 H   0  0  0  0  0  0  0  0  0  0  0  0
  -23.1658   30.3451  -17.7063 H   0  0  0  0  0  0  0  0  0  0  0  0
  -22.2521   29.4210  -18.9286 H   0  0  0  0  0  0  0  0  0  0  0  0
  -25.1348   35.4688  -14.7095 H   0  0  0  0  0  0  0  0  0  0  0  0
  -27.1959   37.2540  -18.8429 H   0  0  0  0  0  0  0  0  0  0  0  0
  -25.7853   37.8484  -14.8301 H   0  0  0  0  0  0  0  0  0  0  0  0
  -26.8190   38.7450  -16.9047 H   0  0  0  0  0  0  0  0  0  0  0  0
  1  2  2  0  0  0  0
  1  3  2  0  0  0  0
  1  4  1  0  0  0  0
  1  5  1  0  0  0  0
  4  6  1  0  0  0  0
  4 24  1  0  0  0  0
  5  7  1  0  0  0  0
  5  8  2  0  0  0  0
  6  9  1  0  0  0  0
  6 10  2  0  0  0  0
  7 11  2  0  0  0  0
  7 12  1  0  0  0  0
  8 13  1  0  0  0  0
  8 14  1  0  0  0  0
  9 15  2  0  0  0  0
  9 25  1  0  0  0  0
 10 16  1  0  0  0  0
 10 26  1  0  0  0  0
 12 17  1  0  0  0  0
 12 27  1  0  0  0  0
 13 17  1  0  0  0  0
 13 28  1  0  0  0  0
 14 29  1  0  0  0  0
 14 30  1  0  0  0  0
 14 31  1  0  0  0  0
 15 18  1  0  0  0  0
 16 19  2  0  0  0  0
 16 18  1  0  0  0  0
 17 20  2  0  0  0  0
 18 21  2  0  0  0  0
 19 22  1  0  0  0  0
 19 32  1  0  0  0  0
 21 23  1  0  0  0  0
 21 33  1  0  0  0  0
 22 23  2  0  0  0  0
 22 34  1  0  0  0  0
 23 35  1  0  0  0  0
M  END
>  <Column 1>
Cc1[nH]c(=O)[nH]c(=O)c1S(=O)(=O)Nc1cnc2ccccc2c1 ZINC000000034199

>  <Total Molweight>
332.339

>  <cLogP>
0.362

>  <cLogS>
-4.455

>  <H-Acceptors>
8

>  <H-Donors>
3

>  <Total Surface Area>
226.76

>  <MMFF94 Energy>
-104.2

> <Gold.Version>
5.8.1

> <Gold.Id.Protein>
ID|2FQT|mol2

> <Gold.PLP.Fitness>
57.8733

> <Gold.PLP.PLP>
-40.8088

> <Gold.PLP.part.hbond>
-1.0000

> <Gold.PLP.part.metal>
-2.0000

> <Gold.PLP.part.buried>
-4.8798

> <Gold.PLP.part.nonpolar>
-33.4018

> <Gold.PLP.part.repulsive>
0.3334

> <Gold.PLP.ligand.clash>
0.0000

> <Gold.PLP.ligand.torsion>
1.6062

> <Gold.PLP.Chemscore.Hbond>
0.7930

> <Gold.PLP.Chemscore.CHOScore>
0.9412

> <Gold.PLP.Chemscore.Metal>
2.0000

> <Gold.Chemscore.Hbonds>
donor molecule, donor type, donor heavy atom, donor atom, acceptor molecule, acceptor atom, score
      P1  H   966  2177       L1    11  0.79
      L1  C     9    25       P1   954  0.94
      P1  M  1222  1222       L1     2  1.00
      P1  M  1222  1222       L1    11  1.00

> <Gold.PLP.Chemscore.Internal.Correction>
3.0742

> <Gold.Protein.RotatedTorsions>
[ 1849  621  620  617 ] final   41.91 input   60.00 | X-H torsion

> <Gold.Protein.ActiveResidues>
 HIS54   GLU57   HIS58   ALA61   PHE62   ILE76   ILE77   ASP78   ILE79   SER80  
 PRO81   GLN125  CYS126  GLY127  GLN128  HIS132  CO701  

> <Gold.Protein.RotatedAtoms>
  -18.7694   28.8119  -12.9074 H   0  0  0  0  0  0  0  0  0  0  0  0  # atno 1849 bound_to 621 
  -19.6882   27.8926  -13.8866 LP  0  0  0  0  0  0  0  0  0  0  0  0  # atno 2431 bound_to 621 
  -18.1249   27.5007  -13.6240 LP  0  0  0  0  0  0  0  0  0  0  0  0  # atno 2432 bound_to 621 

$$$$
Compound 182|DecoysActives|sdf|189|dock6
  -GOLD-   6112412163D 1   1.00000     0.00000

 34 35  0  0  0  0  0  0  0  0  1 V2000
  -26.4496   36.4406  -16.6030 S   0  0  0  0  0  0  0  0  0  0  0  0
  -27.6419   36.4088  -15.7849 O   0  0  0  0  0  0  0  0  0  0  0  0
  -26.4604   37.0392  -17.9189 O   0  0  0  0  0  0  0  0  0  0  0  0
  -25.2469   37.1991  -15.7271 N   0  0  0  0  0  0  0  0  0  0  0  0
  -25.8181   34.7724  -16.7649 C   0  0  0  0  0  0  0  0  0  0  0  0
  -24.1389   37.8699  -16.3971 C   0  0  0  0  0  0  0  0  0  0  0  0
  -26.1194   33.9522  -17.8747 C   0  0  0  0  0  0  0  0  0  0  0  0
  -25.0334   34.2896  -15.7056 C   0  0  0  0  0  0  0  0  0  0  0  0
  -24.0537   39.3125  -15.9370 C   0  0  0  0  0  0  0  0  0  0  0  0
  -25.6296   32.6205  -17.8469 C   0  0  0  0  0  0  0  0  0  0  0  0
  -26.9552   34.4484  -19.0295 C   0  0  0  0  0  0  0  0  0  0  0  0
  -24.5347   32.9885  -15.7256 C   0  0  0  0  0  0  0  0  0  0  0  0
  -25.9620   31.7383  -18.8886 N   0  0  0  0  0  0  0  0  0  0  0  0
  -24.8317   32.1302  -16.7880 C   0  0  0  0  0  0  0  0  0  0  0  0
  -26.6973   30.6270  -18.6987 N   0  0  0  0  0  0  0  0  0  0  0  0
  -25.6358   31.8380  -20.2126 C   0  0  0  0  0  0  0  0  0  0  0  0
  -24.2815   30.7276  -16.7665 C   0  0  0  0  0  0  0  0  0  0  0  0
  -26.8020   30.0675  -19.8977 N   0  0  0  0  0  0  0  0  0  0  0  0
  -26.1459   30.8102  -20.8510 N   0  0  0  0  0  0  0  0  0  0  0  0
  -25.1563   36.9061  -14.7562 H   0  0  0  0  0  0  0  0  0  0  0  0
  -23.1906   37.3546  -16.2178 H   0  0  0  0  0  0  0  0  0  0  0  0
  -24.3217   37.8369  -17.4763 H   0  0  0  0  0  0  0  0  0  0  0  0
  -24.8032   34.9227  -14.8496 H   0  0  0  0  0  0  0  0  0  0  0  0
  -24.9880   39.8461  -16.1419 H   0  0  0  0  0  0  0  0  0  0  0  0
  -23.2430   39.8311  -16.4576 H   0  0  0  0  0  0  0  0  0  0  0  0
  -23.8637   39.3754  -14.8607 H   0  0  0  0  0  0  0  0  0  0  0  0
  -26.7419   33.9056  -19.9554 H   0  0  0  0  0  0  0  0  0  0  0  0
  -26.7422   35.4923  -19.2692 H   0  0  0  0  0  0  0  0  0  0  0  0
  -28.0188   34.3348  -18.7991 H   0  0  0  0  0  0  0  0  0  0  0  0
  -23.9219   32.6474  -14.8924 H   0  0  0  0  0  0  0  0  0  0  0  0
  -25.0536   32.6448  -20.6298 H   0  0  0  0  0  0  0  0  0  0  0  0
  -25.0811   29.9951  -16.9157 H   0  0  0  0  0  0  0  0  0  0  0  0
  -23.8128   30.4974  -15.8035 H   0  0  0  0  0  0  0  0  0  0  0  0
  -23.5205   30.6068  -17.5435 H   0  0  0  0  0  0  0  0  0  0  0  0
  1  2  2  0  0  0  0
  1  3  2  0  0  0  0
  1  4  1  0  0  0  0
  1  5  1  0  0  0  0
  4  6  1  0  0  0  0
  4 20  1  0  0  0  0
  5  7  2  0  0  0  0
  5  8  1  0  0  0  0
  6  9  1  0  0  0  0
  6 21  1  0  0  0  0
  6 22  1  0  0  0  0
  7 10  1  0  0  0  0
  7 11  1  0  0  0  0
  8 12  2  0  0  0  0
  8 23  1  0  0  0  0
  9 24  1  0  0  0  0
  9 25  1  0  0  0  0
  9 26  1  0  0  0  0
 10 13  1  0  0  0  0
 10 14  2  0  0  0  0
 11 27  1  0  0  0  0
 11 28  1  0  0  0  0
 11 29  1  0  0  0  0
 12 14  1  0  0  0  0
 12 30  1  0  0  0  0
 13 15  1  0  0  0  0
 13 16  1  0  0  0  0
 14 17  1  0  0  0  0
 15 18  2  0  0  0  0
 16 19  2  0  0  0  0
 16 31  1  0  0  0  0
 17 32  1  0  0  0  0
 17 33  1  0  0  0  0
 17 34  1  0  0  0  0
 18 19  1  0  0  0  0
M  END
>  <Column 1>
CCNS(=O)(=O)c1ccc(C)c(-n2cnnn2)c1C ZINC000000034393

>  <Total Molweight>
281.339

>  <cLogP>
0.7777

>  <cLogS>
-2.456

>  <H-Acceptors>
7

>  <H-Donors>
1

>  <Total Surface Area>
209.08

>  <MMFF94 Energy>
-11.635

> <Gold.Version>
5.8.1

> <Gold.Id.Protein>
ID|2FQT|mol2

> <Gold.PLP.Fitness>
58.7986

> <Gold.PLP.PLP>
-45.0539

> <Gold.PLP.part.hbond>
-1.0655

> <Gold.PLP.part.metal>
-1.9759

> <Gold.PLP.part.buried>
-6.5453

> <Gold.PLP.part.nonpolar>
-36.7232

> <Gold.PLP.part.repulsive>
0.4769

> <Gold.PLP.ligand.clash>
0.0000

> <Gold.PLP.ligand.torsion>
2.8962

> <Gold.PLP.Chemscore.Hbond>
1.0000

> <Gold.PLP.Chemscore.CHOScore>
0.0000

> <Gold.PLP.Chemscore.Metal>
1.9693

> <Gold.Chemscore.Hbonds>
donor molecule, donor type, donor heavy atom, donor atom, acceptor molecule, acceptor atom, score
      P1  H   966  2177       L1    18  1.00
      P1  M  1222  1222       L1    15  1.00
      P1  M  1222  1222       L1    18  0.97

> <Gold.PLP.Chemscore.Internal.Correction>
4.7210

> <Gold.Protein.RotatedTorsions>
[ 1849  621  620  617 ] final  -21.29 input   60.00 | X-H torsion

> <Gold.Protein.ActiveResidues>
 HIS54   GLU57   HIS58   ALA61   PHE62   ILE76   ILE77   ASP78   ILE79   SER80  
 PRO81   GLN125  CYS126  GLY127  GLN128  HIS132  CO701  

> <Gold.Protein.RotatedAtoms>
  -19.6198   28.6046  -13.3508 H   0  0  0  0  0  0  0  0  0  0  0  0  # atno 1849 bound_to 621 
  -18.9022   27.3113  -14.0293 LP  0  0  0  0  0  0  0  0  0  0  0  0  # atno 2431 bound_to 621 
  -18.0546   28.2907  -13.0348 LP  0  0  0  0  0  0  0  0  0  0  0  0  # atno 2432 bound_to 621 

$$$$
Compound 183|DecoysActives|sdf|190|dock1
  -GOLD-   6112412163D 1   1.00000     0.00000

 35 38  0  0  0  0  0  0  0  0  1 V2000
  -27.8938   25.5838  -19.2415 O   0  0  0  0  0  0  0  0  0  0  0  0
  -26.8077   26.1510  -19.3459 C   0  0  0  0  0  0  0  0  0  0  0  0
  -25.9134   26.0453  -20.5840 C   0  0  1  0  0  0  0  0  0  0  0  0
  -26.1900   26.9149  -18.1895 C   0  0  0  0  0  0  0  0  0  0  0  0
  -25.6265   27.3843  -20.9953 O   0  0  0  0  0  0  0  0  0  0  0  0
  -24.6809   25.4433  -20.1568 O   0  0  0  0  0  0  0  0  0  0  0  0
  -25.2645   28.0466  -18.6827 C   0  0  1  0  0  0  0  0  0  0  0  0
  -24.6131   27.7727  -20.0592 C   0  0  1  0  0  0  0  0  0  0  0  0
  -23.7470   26.5280  -20.0689 C   0  0  0  0  0  0  0  0  0  0  0  0
  -25.9424   29.3377  -18.7067 N   0  0  0  0  0  0  0  0  0  0  0  0
  -27.0428   29.5273  -19.4530 N   0  0  0  0  0  0  0  0  0  0  0  0
  -25.5901   30.5157  -18.0907 C   0  0  0  0  0  0  0  0  0  0  0  0
  -27.3586   30.8027  -19.2927 N   0  0  0  0  0  0  0  0  0  0  0  0
  -26.4658   31.4297  -18.4611 N   0  0  0  0  0  0  0  0  0  0  0  0
  -24.4314   30.7187  -17.2302 C   0  0  0  0  0  0  0  0  0  0  0  0
  -24.3891   31.7770  -16.2996 C   0  0  0  0  0  0  0  0  0  0  0  0
  -23.3022   29.9000  -17.3984 C   0  0  0  0  0  0  0  0  0  0  0  0
  -23.2201   31.9788  -15.5478 C   0  0  0  0  0  0  0  0  0  0  0  0
  -25.5798   32.6675  -16.0580 C   0  0  0  0  0  0  0  0  0  0  0  0
  -22.1474   30.1163  -16.6468 C   0  0  0  0  0  0  0  0  0  0  0  0
  -22.1067   31.1564  -15.7237 C   0  0  0  0  0  0  0  0  0  0  0  0
  -26.3914   25.4705  -21.3807 H   0  0  0  0  0  0  0  0  0  0  0  0
  -25.5973   26.1865  -17.6223 H   0  0  0  0  0  0  0  0  0  0  0  0
  -26.9808   27.2836  -17.5272 H   0  0  0  0  0  0  0  0  0  0  0  0
  -24.4676   28.1490  -17.9375 H   0  0  0  0  0  0  0  0  0  0  0  0
  -24.0699   28.6461  -20.4326 H   0  0  0  0  0  0  0  0  0  0  0  0
  -23.1121   26.4182  -19.1856 H   0  0  0  0  0  0  0  0  0  0  0  0
  -23.1215   26.4901  -20.9673 H   0  0  0  0  0  0  0  0  0  0  0  0
  -23.3228   29.0702  -18.1029 H   0  0  0  0  0  0  0  0  0  0  0  0
  -23.1724   32.7768  -14.8087 H   0  0  0  0  0  0  0  0  0  0  0  0
  -25.9293   33.1118  -16.9949 H   0  0  0  0  0  0  0  0  0  0  0  0
  -26.3919   32.0952  -15.5985 H   0  0  0  0  0  0  0  0  0  0  0  0
  -25.3301   33.4936  -15.3834 H   0  0  0  0  0  0  0  0  0  0  0  0
  -21.2844   29.4665  -16.7721 H   0  0  0  0  0  0  0  0  0  0  0  0
  -21.2116   31.3210  -15.1281 H   0  0  0  0  0  0  0  0  0  0  0  0
  1  2  2  0  0  0  0
  2  3  1  0  0  0  0
  2  4  1  0  0  0  0
  3  5  1  0  0  0  0
  3  6  1  0  0  0  0
  3 22  1  0  0  0  0
  4  7  1  0  0  0  0
  4 23  1  0  0  0  0
  4 24  1  0  0  0  0
  5  8  1  0  0  0  0
  6  9  1  0  0  0  0
  7 10  1  0  0  0  0
  7  8  1  0  0  0  0
  7 25  1  0  0  0  0
  8  9  1  0  0  0  0
  8 26  1  0  0  0  0
  9 27  1  0  0  0  0
  9 28  1  0  0  0  0
 10 11  1  0  0  0  0
 10 12  1  0  0  0  0
 11 13  2  0  0  0  0
 12 14  2  0  0  0  0
 12 15  1  0  0  0  0
 13 14  1  0  0  0  0
 15 16  2  0  0  0  0
 15 17  1  0  0  0  0
 16 18  1  0  0  0  0
 16 19  1  0  0  0  0
 17 20  2  0  0  0  0
 17 29  1  0  0  0  0
 18 21  2  0  0  0  0
 18 30  1  0  0  0  0
 19 31  1  0  0  0  0
 19 32  1  0  0  0  0
 19 33  1  0  0  0  0
 20 21  1  0  0  0  0
 20 34  1  0  0  0  0
 21 35  1  0  0  0  0
M  END
>  <Column 1>
Cc1ccccc1-c1nnnn1[C@H]1CC(=O)[C@@H]2OC[C@H]1O2 ZINC000000034418

>  <Total Molweight>
286.29

>  <cLogP>
1.1038

>  <cLogS>
-3.181

>  <H-Acceptors>
7

>  <H-Donors>
0

>  <Total Surface Area>
206.53

>  <MMFF94 Energy>
78.784

> <Gold.Version>
5.8.1

> <Gold.Id.Protein>
ID|2FQT|mol2

> <Gold.PLP.Fitness>
47.9119

> <Gold.PLP.PLP>
-28.7108

> <Gold.PLP.part.hbond>
-1.0000

> <Gold.PLP.part.metal>
-2.1012

> <Gold.PLP.part.buried>
-1.0306

> <Gold.PLP.part.nonpolar>
-23.1353

> <Gold.PLP.part.repulsive>
0.1808

> <Gold.PLP.ligand.clash>
0.3577

> <Gold.PLP.ligand.torsion>
0.3801

> <Gold.PLP.Chemscore.Hbond>
1.0000

> <Gold.PLP.Chemscore.CHOScore>
0.0000

> <Gold.PLP.Chemscore.Metal>
2.7716

> <Gold.Chemscore.Hbonds>
donor molecule, donor type, donor heavy atom, donor atom, acceptor molecule, acceptor atom, score
      P1  H   966  2177       L1    11  1.00
      P1  M  1222  1222       L1    11  1.00
      P1  M  1222  1222       L1    13  1.00
      P1  M  1222  1222       L1    14  0.77

> <Gold.PLP.Chemscore.Internal.Correction>
0.6890

> <Gold.Protein.RotatedTorsions>
[ 1849  621  620  617 ] final -126.79 input   60.00 | X-H torsion

> <Gold.Protein.ActiveResidues>
 HIS54   GLU57   HIS58   ALA61   PHE62   ILE76   ILE77   ASP78   ILE79   SER80  
 PRO81   GLN125  CYS126  GLY127  GLN128  HIS132  CO701  

> <Gold.Protein.RotatedAtoms>
  -19.1266   27.3851  -14.0515 H   0  0  0  0  0  0  0  0  0  0  0  0  # atno 1849 bound_to 621 
  -17.9758   28.0960  -13.1467 LP  0  0  0  0  0  0  0  0  0  0  0  0  # atno 2431 bound_to 621 
  -19.4775   28.7341  -13.2118 LP  0  0  0  0  0  0  0  0  0  0  0  0  # atno 2432 bound_to 621 

$$$$
Compound 184|DecoysActives|sdf|191|dock2
  -GOLD-   6112412163D 1   1.00000     0.00000

 25 26  0  0  0  0  0  0  0  0  1 V2000
  -25.1432   32.1828  -16.1341 O   0  0  0  0  0  0  0  0  0  0  0  0
  -25.4463   33.2754  -16.9024 C   0  0  0  0  0  0  0  0  0  0  0  0
  -24.4890   32.4000  -14.8884 C   0  0  0  0  0  0  0  0  0  0  0  0
  -26.0202   33.0415  -18.1650 C   0  0  0  0  0  0  0  0  0  0  0  0
  -25.2280   34.6007  -16.4903 C   0  0  0  0  0  0  0  0  0  0  0  0
  -26.2448   31.7340  -18.6520 N   0  0  0  0  0  0  0  0  0  0  0  0
  -26.3980   34.1210  -18.9787 C   0  0  0  0  0  0  0  0  0  0  0  0
  -25.5927   35.6760  -17.3075 C   0  0  0  0  0  0  0  0  0  0  0  0
  -26.1972   30.6458  -17.8459 N   0  0  0  0  0  0  0  0  0  0  0  0
  -26.6123   31.3118  -19.9047 C   0  0  0  0  0  0  0  0  0  0  0  0
  -26.1810   35.4281  -18.5470 C   0  0  0  0  0  0  0  0  0  0  0  0
  -25.4316   37.0021  -17.0142 O   0  0  0  0  0  0  0  0  0  0  0  0
  -26.4915   29.6080  -18.6168 N   0  0  0  0  0  0  0  0  0  0  0  0
  -26.7564   30.0061  -19.9006 N   0  0  0  0  0  0  0  0  0  0  0  0
  -24.8371   37.3274  -15.7643 C   0  0  0  0  0  0  0  0  0  0  0  0
  -23.4672   32.7616  -15.0421 H   0  0  0  0  0  0  0  0  0  0  0  0
  -24.4263   31.4367  -14.3730 H   0  0  0  0  0  0  0  0  0  0  0  0
  -25.0617   33.0820  -14.2513 H   0  0  0  0  0  0  0  0  0  0  0  0
  -24.7722   34.7988  -15.5288 H   0  0  0  0  0  0  0  0  0  0  0  0
  -26.8538   33.9618  -19.9551 H   0  0  0  0  0  0  0  0  0  0  0  0
  -26.7715   31.9702  -20.7435 H   0  0  0  0  0  0  0  0  0  0  0  0
  -26.4709   36.2612  -19.1838 H   0  0  0  0  0  0  0  0  0  0  0  0
  -25.4463   36.9627  -14.9307 H   0  0  0  0  0  0  0  0  0  0  0  0
  -24.7898   38.4181  -15.6901 H   0  0  0  0  0  0  0  0  0  0  0  0
  -23.8129   36.9447  -15.7037 H   0  0  0  0  0  0  0  0  0  0  0  0
  1  2  1  0  0  0  0
  1  3  1  0  0  0  0
  2  4  2  0  0  0  0
  2  5  1  0  0  0  0
  3 16  1  0  0  0  0
  3 17  1  0  0  0  0
  3 18  1  0  0  0  0
  4  6  1  0  0  0  0
  4  7  1  0  0  0  0
  5  8  2  0  0  0  0
  5 19  1  0  0  0  0
  6  9  1  0  0  0  0
  6 10  1  0  0  0  0
  7 11  2  0  0  0  0
  7 20  1  0  0  0  0
  8 12  1  0  0  0  0
  8 11  1  0  0  0  0
  9 13  2  0  0  0  0
 10 14  2  0  0  0  0
 10 21  1  0  0  0  0
 11 22  1  0  0  0  0
 12 15  1  0  0  0  0
 13 14  1  0  0  0  0
 15 23  1  0  0  0  0
 15 24  1  0  0  0  0
 15 25  1  0  0  0  0
M  END
>  <Column 1>
COc1ccc(-n2cnnn2)c(OC)c1 ZINC000000034941

>  <Total Molweight>
206.204

>  <cLogP>
0.4182

>  <cLogS>
-1.951

>  <H-Acceptors>
6

>  <H-Donors>
0

>  <Total Surface Area>
163.02

>  <MMFF94 Energy>
42.224

> <Gold.Version>
5.8.1

> <Gold.Id.Protein>
ID|2FQT|mol2

> <Gold.PLP.Fitness>
52.2165

> <Gold.PLP.PLP>
-29.1075

> <Gold.PLP.part.hbond>
-1.0000

> <Gold.PLP.part.metal>
-2.9236

> <Gold.PLP.part.buried>
-0.2345

> <Gold.PLP.part.nonpolar>
-25.5522

> <Gold.PLP.part.repulsive>
0.2879

> <Gold.PLP.ligand.clash>
0.0000

> <Gold.PLP.ligand.torsion>
0.0886

> <Gold.PLP.Chemscore.Hbond>
1.0000

> <Gold.PLP.Chemscore.CHOScore>
1.0000

> <Gold.PLP.Chemscore.Metal>
2.8799

> <Gold.Chemscore.Hbonds>
donor molecule, donor type, donor heavy atom, donor atom, acceptor molecule, acceptor atom, score
      P1  H   966  2177       L1    14  1.00
      L1  C    10    21       P1   954  1.00
      P1  M  1222  1222       L1     9  0.94
      P1  M  1222  1222       L1    13  1.00
      P1  M  1222  1222       L1    14  0.94

> <Gold.PLP.Chemscore.Internal.Correction>
0.0069

> <Gold.Protein.RotatedTorsions>
[ 1849  621  620  617 ] final  -66.27 input   60.00 | X-H torsion

> <Gold.Protein.ActiveResidues>
 HIS54   GLU57   HIS58   ALA61   PHE62   ILE76   ILE77   ASP78   ILE79   SER80  
 PRO81   GLN125  CYS126  GLY127  GLN128  HIS132  CO701  

> <Gold.Protein.RotatedAtoms>
  -19.7412   28.0511  -13.7887 H   0  0  0  0  0  0  0  0  0  0  0  0  # atno 1849 bound_to 621 
  -18.2493   27.4033  -13.7369 LP  0  0  0  0  0  0  0  0  0  0  0  0  # atno 2431 bound_to 621 
  -18.5851   28.7562  -12.8862 LP  0  0  0  0  0  0  0  0  0  0  0  0  # atno 2432 bound_to 621 

$$$$
Compound 185|DecoysActives|sdf|192|dock4
  -GOLD-   6112412163D 1   1.00000     0.00000

 27 27  0  0  0  0  0  0  0  0  1 V2000
  -26.0958   29.1014  -19.0041 S   0  0  0  0  0  0  0  0  0  0  0  0
  -26.9419   29.8448  -19.9094 O   0  0  0  0  0  0  0  0  0  0  0  0
  -26.6374   28.5216  -17.7978 O   0  0  0  0  0  0  0  0  0  0  0  0
  -25.3022   27.9010  -19.8957 N   0  0  0  0  0  0  0  0  0  0  0  0
  -24.8143   30.1210  -18.5880 N   0  0  0  0  0  0  0  0  0  0  0  0
  -24.5591   28.3960  -21.0739 C   0  0  0  0  0  0  0  0  0  0  0  0
  -26.1655   26.7518  -20.2369 C   0  0  0  0  0  0  0  0  0  0  0  0
  -25.1741   31.4192  -18.0949 C   0  0  0  0  0  0  0  0  0  0  0  0
  -25.8095   32.3375  -18.9369 C   0  0  0  0  0  0  0  0  0  0  0  0
  -24.9325   31.7440  -16.7627 C   0  0  0  0  0  0  0  0  0  0  0  0
  -26.2006   33.5901  -18.4562 C   0  0  0  0  0  0  0  0  0  0  0  0
  -25.2912   33.0016  -16.2819 C   0  0  0  0  0  0  0  0  0  0  0  0
  -26.7766   34.5222  -19.3040 N   0  0  0  0  0  0  0  0  0  0  0  0
  -25.9095   33.9227  -17.1308 C   0  0  0  0  0  0  0  0  0  0  0  0
  -24.2128   30.1801  -19.4094 H   0  0  0  0  0  0  0  0  0  0  0  0
  -25.2418   28.6857  -21.8784 H   0  0  0  0  0  0  0  0  0  0  0  0
  -23.9237   29.2471  -20.8145 H   0  0  0  0  0  0  0  0  0  0  0  0
  -23.8980   27.6063  -21.4459 H   0  0  0  0  0  0  0  0  0  0  0  0
  -27.0065   27.0641  -20.8636 H   0  0  0  0  0  0  0  0  0  0  0  0
  -26.5409   26.2710  -19.3289 H   0  0  0  0  0  0  0  0  0  0  0  0
  -25.5880   25.9980  -20.7822 H   0  0  0  0  0  0  0  0  0  0  0  0
  -26.0166   32.0720  -19.9690 H   0  0  0  0  0  0  0  0  0  0  0  0
  -24.4540   31.0307  -16.0995 H   0  0  0  0  0  0  0  0  0  0  0  0
  -25.0889   33.2668  -15.2479 H   0  0  0  0  0  0  0  0  0  0  0  0
  -26.9149   34.2935  -20.2791 H   0  0  0  0  0  0  0  0  0  0  0  0
  -26.7662   35.5014  -19.0513 H   0  0  0  0  0  0  0  0  0  0  0  0
  -26.1731   34.9030  -16.7430 H   0  0  0  0  0  0  0  0  0  0  0  0
  1  2  2  0  0  0  0
  1  3  2  0  0  0  0
  1  4  1  0  0  0  0
  1  5  1  0  0  0  0
  4  6  1  0  0  0  0
  4  7  1  0  0  0  0
  5  8  1  0  0  0  0
  5 15  1  0  0  0  0
  6 16  1  0  0  0  0
  6 17  1  0  0  0  0
  6 18  1  0  0  0  0
  7 19  1  0  0  0  0
  7 20  1  0  0  0  0
  7 21  1  0  0  0  0
  8  9  2  0  0  0  0
  8 10  1  0  0  0  0
  9 11  1  0  0  0  0
  9 22  1  0  0  0  0
 10 12  2  0  0  0  0
 10 23  1  0  0  0  0
 11 13  1  0  0  0  0
 11 14  2  0  0  0  0
 12 14  1  0  0  0  0
 12 24  1  0  0  0  0
 13 25  1  0  0  0  0
 13 26  1  0  0  0  0
 14 27  1  0  0  0  0
M  END
>  <Column 1>
CN(C)S(=O)(=O)Nc1cccc(N)c1 ZINC000000035131

>  <Total Molweight>
215.276

>  <cLogP>
-0.1113

>  <cLogS>
-1.812

>  <H-Acceptors>
5

>  <H-Donors>
2

>  <Total Surface Area>
156.64

>  <MMFF94 Energy>
-146.4

> <Gold.Version>
5.8.1

> <Gold.Id.Protein>
ID|2FQT|mol2

> <Gold.PLP.Fitness>
43.8973

> <Gold.PLP.PLP>
-26.5295

> <Gold.PLP.part.hbond>
-2.0000

> <Gold.PLP.part.metal>
-2.0000

> <Gold.PLP.part.buried>
-1.4643

> <Gold.PLP.part.nonpolar>
-21.9231

> <Gold.PLP.part.repulsive>
0.2304

> <Gold.PLP.ligand.clash>
0.0000

> <Gold.PLP.ligand.torsion>
0.4850

> <Gold.PLP.Chemscore.Hbond>
2.0000

> <Gold.PLP.Chemscore.CHOScore>
0.0000

> <Gold.PLP.Chemscore.Metal>
1.9937

> <Gold.Chemscore.Hbonds>
donor molecule, donor type, donor heavy atom, donor atom, acceptor molecule, acceptor atom, score
      L1  H    13    25       P1   954  1.00
      P1  H   966  2177       L1     2  1.00
      P1  M  1222  1222       L1     2  1.00
      P1  M  1222  1222       L1     3  1.00

> <Gold.PLP.Chemscore.Internal.Correction>
0.3755

> <Gold.Protein.RotatedTorsions>
[ 1849  621  620  617 ] final   20.48 input   60.00 | X-H torsion

> <Gold.Protein.ActiveResidues>
 HIS54   GLU57   HIS58   ALA61   PHE62   ILE76   ILE77   ASP78   ILE79   SER80  
 PRO81   GLN125  CYS126  GLY127  GLN128  HIS132  CO701  

> <Gold.Protein.RotatedAtoms>
  -19.1033   28.8426  -13.0013 H   0  0  0  0  0  0  0  0  0  0  0  0  # atno 1849 bound_to 621 
  -19.4953   27.6269  -14.0095 LP  0  0  0  0  0  0  0  0  0  0  0  0  # atno 2431 bound_to 621 
  -17.9816   27.7354  -13.4065 LP  0  0  0  0  0  0  0  0  0  0  0  0  # atno 2432 bound_to 621 

$$$$
Compound 186|DecoysActives|sdf|193|dock2
  -GOLD-   6112412163D 1   1.00000     0.00000

 28 30  0  0  0  0  0  0  0  0  1 V2000
  -24.6853   27.8371  -17.9275 N   0  0  0  0  0  0  0  0  0  0  0  0
  -24.4672   29.0596  -17.4231 N   0  0  0  0  0  0  0  0  0  0  0  0
  -25.7979   28.0384  -18.6224 C   0  0  0  0  0  0  0  0  0  0  0  0
  -25.4283   29.9541  -17.8133 C   0  0  0  0  0  0  0  0  0  0  0  0
  -26.2846   29.3055  -18.5825 N   0  0  0  0  0  0  0  0  0  0  0  0
  -26.4478   27.1279  -19.3284 N   0  0  0  0  0  0  0  0  0  0  0  0
  -25.4821   31.3681  -17.4373 C   0  0  0  0  0  0  0  0  0  0  0  0
  -25.2222   31.8199  -16.1365 C   0  0  0  0  0  0  0  0  0  0  0  0
  -25.8065   32.3207  -18.4116 C   0  0  0  0  0  0  0  0  0  0  0  0
  -25.2856   33.1872  -15.8209 C   0  0  0  0  0  0  0  0  0  0  0  0
  -25.8695   33.6830  -18.0971 C   0  0  0  0  0  0  0  0  0  0  0  0
  -25.6104   34.1377  -16.7981 C   0  0  0  0  0  0  0  0  0  0  0  0
  -25.6886   35.5725  -16.5167 C   0  0  0  0  0  0  0  0  0  0  0  0
  -25.4937   36.5599  -17.3728 N   0  0  0  0  0  0  0  0  0  0  0  0
  -25.9807   36.1336  -15.3019 N   0  0  0  0  0  0  0  0  0  0  0  0
  -25.6786   37.6817  -16.6302 C   0  0  0  0  0  0  0  0  0  0  0  0
  -25.9790   37.4730  -15.3546 N   0  0  0  0  0  0  0  0  0  0  0  0
  -25.5496   38.8614  -17.2147 N   0  0  0  0  0  0  0  0  0  0  0  0
  -23.6597   29.2080  -16.8328 H   0  0  0  0  0  0  0  0  0  0  0  0
  -26.1163   26.1770  -19.3813 H   0  0  0  0  0  0  0  0  0  0  0  0
  -27.2904   27.3683  -19.8288 H   0  0  0  0  0  0  0  0  0  0  0  0
  -24.9655   31.1291  -15.3385 H   0  0  0  0  0  0  0  0  0  0  0  0
  -26.0148   32.0063  -19.4341 H   0  0  0  0  0  0  0  0  0  0  0  0
  -25.0744   33.4790  -14.7961 H   0  0  0  0  0  0  0  0  0  0  0  0
  -26.1254   34.3933  -18.8831 H   0  0  0  0  0  0  0  0  0  0  0  0
  -26.1854   35.6790  -14.4222 H   0  0  0  0  0  0  0  0  0  0  0  0
  -25.3183   38.9340  -18.1937 H   0  0  0  0  0  0  0  0  0  0  0  0
  -25.6805   39.7135  -16.6905 H   0  0  0  0  0  0  0  0  0  0  0  0
  1  2  1  0  0  0  0
  1  3  2  0  0  0  0
  2  4  1  0  0  0  0
  2 19  1  0  0  0  0
  3  5  1  0  0  0  0
  3  6  1  0  0  0  0
  4  7  1  0  0  0  0
  4  5  2  0  0  0  0
  6 20  1  0  0  0  0
  6 21  1  0  0  0  0
  7  8  2  0  0  0  0
  7  9  1  0  0  0  0
  8 10  1  0  0  0  0
  8 22  1  0  0  0  0
  9 11  2  0  0  0  0
  9 23  1  0  0  0  0
 10 12  2  0  0  0  0
 10 24  1  0  0  0  0
 11 12  1  0  0  0  0
 11 25  1  0  0  0  0
 12 13  1  0  0  0  0
 13 14  2  0  0  0  0
 13 15  1  0  0  0  0
 14 16  1  0  0  0  0
 15 17  1  0  0  0  0
 15 26  1  0  0  0  0
 16 18  1  0  0  0  0
 16 17  2  0  0  0  0
 18 27  1  0  0  0  0
 18 28  1  0  0  0  0
M  END
>  <Column 1>
Nc1n[nH]c(-c2ccc(-c3nc(N)n[nH]3)cc2)n1 ZINC000000035898

>  <Total Molweight>
242.245

>  <cLogP>
-0.1302

>  <cLogS>
-4.5

>  <H-Acceptors>
8

>  <H-Donors>
4

>  <Total Surface Area>
184

>  <MMFF94 Energy>
-130.5

> <Gold.Version>
5.8.1

> <Gold.Id.Protein>
ID|2FQT|mol2

> <Gold.PLP.Fitness>
38.8748

> <Gold.PLP.PLP>
-31.9523

> <Gold.PLP.part.hbond>
-1.8814

> <Gold.PLP.part.metal>
-1.0000

> <Gold.PLP.part.buried>
-4.0658

> <Gold.PLP.part.nonpolar>
-26.5883

> <Gold.PLP.part.repulsive>
0.5715

> <Gold.PLP.ligand.clash>
0.0000

> <Gold.PLP.ligand.torsion>
0.9990

> <Gold.PLP.Chemscore.Hbond>
0.9833

> <Gold.PLP.Chemscore.CHOScore>
0.0000

> <Gold.PLP.Chemscore.Metal>
0.9951

> <Gold.Chemscore.Hbonds>
donor molecule, donor type, donor heavy atom, donor atom, acceptor molecule, acceptor atom, score
      L1  H    15    26       P1   431  0.98
      P1  M  1222  1222       L1     5  1.00

> <Gold.PLP.Chemscore.Internal.Correction>
0.0000

> <Gold.Protein.RotatedTorsions>
[ 1849  621  620  617 ] final  175.05 input   60.00 | X-H torsion

> <Gold.Protein.ActiveResidues>
 HIS54   GLU57   HIS58   ALA61   PHE62   ILE76   ILE77   ASP78   ILE79   SER80  
 PRO81   GLN125  CYS126  GLY127  GLN128  HIS132  CO701  

> <Gold.Protein.RotatedAtoms>
  -18.2697   27.3975  -13.7451 H   0  0  0  0  0  0  0  0  0  0  0  0  # atno 1849 bound_to 621 
  -18.5653   28.7474  -12.8857 LP  0  0  0  0  0  0  0  0  0  0  0  0  # atno 2431 bound_to 621 
  -19.7510   28.0703  -13.7813 LP  0  0  0  0  0  0  0  0  0  0  0  0  # atno 2432 bound_to 621 

$$$$
Compound 187|DecoysActives|sdf|194|dock2
  -GOLD-   6112412163D 1   1.00000     0.00000

 29 31  0  0  0  0  0  0  0  0  3 V2000
  -24.3212   39.8814  -16.5994 O   0  0  0  0  0  0  0  0  0  0  0  0
  -24.0703   38.7849  -16.0786 N   0  3  0  0  0  0  0  0  0  0  0  0
  -22.9986   38.5018  -15.5228 O   0  5  0  0  0  0  0  0  0  0  0  0
  -25.1091   37.7485  -16.1262 C   0  0  0  0  0  0  0  0  0  0  0  0
  -24.7522   36.3998  -15.9913 C   0  0  0  0  0  0  0  0  0  0  0  0
  -26.4483   38.1179  -16.3033 C   0  0  0  0  0  0  0  0  0  0  0  0
  -25.7408   35.4031  -16.0431 C   0  0  0  0  0  0  0  0  0  0  0  0
  -27.4321   37.1300  -16.3433 C   0  0  0  0  0  0  0  0  0  0  0  0
  -27.0813   35.7837  -16.2110 C   0  0  0  0  0  0  0  0  0  0  0  0
  -25.3724   33.9477  -15.8793 C   0  0  0  0  0  0  0  0  0  0  0  0
  -24.6468   33.5101  -17.0281 O   0  0  0  0  0  0  0  0  0  0  0  0
  -25.4458   32.6073  -17.7545 N   0  0  0  0  0  0  0  0  0  0  0  0
  -24.9132   31.4241  -17.7740 C   0  0  0  0  0  0  0  0  0  0  0  0
  -23.7240   31.1260  -17.1491 N   0  0  0  0  0  0  0  0  0  0  0  0
  -25.6084   30.3425  -18.4932 C   0  0  0  0  0  0  0  0  0  0  0  0
  -23.2777   29.9105  -17.2228 C   0  0  0  0  0  0  0  0  0  0  0  0
  -26.7193   30.3338  -19.1593 N   0  0  0  0  0  0  0  0  0  0  0  0
  -24.9689   29.0278  -18.4803 C   0  0  0  0  0  0  0  0  0  0  0  0
  -23.8567   28.8384  -17.8692 N   0  0  0  0  0  0  0  0  0  0  0  0
  -26.8669   28.9852  -19.6252 O   0  0  0  0  0  0  0  0  0  0  0  0
  -25.7846   28.2283  -19.1918 N   0  0  0  0  0  0  0  0  0  0  0  0
  -23.7109   36.1097  -15.8549 H   0  0  0  0  0  0  0  0  0  0  0  0
  -26.7390   39.1610  -16.4089 H   0  0  0  0  0  0  0  0  0  0  0  0
  -28.4754   37.4072  -16.4785 H   0  0  0  0  0  0  0  0  0  0  0  0
  -27.8656   35.0289  -16.2449 H   0  0  0  0  0  0  0  0  0  0  0  0
  -24.7556   33.8324  -14.9800 H   0  0  0  0  0  0  0  0  0  0  0  0
  -26.2719   33.3297  -15.7758 H   0  0  0  0  0  0  0  0  0  0  0  0
  -22.3227   29.6912  -16.7138 H   0  0  0  0  0  0  0  0  0  0  0  0
  -25.6968   27.2482  -19.4102 H   0  0  0  0  0  0  0  0  0  0  0  0
  1  2  2  0  0  0  0
  2  3  1  0  0  0  0
  2  4  1  0  0  0  0
  4  5  2  0  0  0  0
  4  6  1  0  0  0  0
  5  7  1  0  0  0  0
  5 22  1  0  0  0  0
  6  8  2  0  0  0  0
  6 23  1  0  0  0  0
  7  9  2  0  0  0  0
  7 10  1  0  0  0  0
  8  9  1  0  0  0  0
  8 24  1  0  0  0  0
  9 25  1  0  0  0  0
 10 11  1  0  0  0  0
 10 26  1  0  0  0  0
 10 27  1  0  0  0  0
 11 12  1  0  0  0  0
 12 13  2  0  0  0  0
 13 14  1  0  0  0  0
 13 15  1  0  0  0  0
 14 16  2  0  0  0  0
 15 17  2  0  0  0  0
 15 18  1  0  0  0  0
 16 19  1  0  0  0  0
 16 28  1  0  0  0  0
 17 20  1  0  0  0  0
 18 21  1  0  0  0  0
 18 19  2  0  0  0  0
 20 21  1  0  0  0  0
 21 29  1  0  0  0  0
M  CHG  1   2   1
M  CHG  1   3  -1
M  END
>  <Column 1>
O=[N+]([O-])c1cccc(CON=c2ncnc3[nH]onc2-3)c1 ZINC000000036789

>  <Total Molweight>
288.223

>  <cLogP>
-0.5904

>  <cLogS>
-3.616

>  <H-Acceptors>
9

>  <H-Donors>
1

>  <Total Surface Area>
208.82

>  <MMFF94 Energy>
82.181

> <Gold.Version>
5.8.1

> <Gold.Id.Protein>
ID|2FQT|mol2

> <Gold.PLP.Fitness>
51.8737

> <Gold.PLP.PLP>
-47.1288

> <Gold.PLP.part.hbond>
-1.0000

> <Gold.PLP.part.metal>
-2.0000

> <Gold.PLP.part.buried>
-6.9914

> <Gold.PLP.part.nonpolar>
-38.1111

> <Gold.PLP.part.repulsive>
0.5095

> <Gold.PLP.ligand.clash>
0.0000

> <Gold.PLP.ligand.torsion>
0.6494

> <Gold.PLP.Chemscore.Hbond>
0.0000

> <Gold.PLP.Chemscore.CHOScore>
0.0000

> <Gold.PLP.Chemscore.Metal>
1.0000

> <Gold.Chemscore.Hbonds>
donor molecule, donor type, donor heavy atom, donor atom, acceptor molecule, acceptor atom, score
      P1  M  1222  1222       L1    17  1.00

> <Gold.PLP.Chemscore.Internal.Correction>
0.0436

> <Gold.Protein.RotatedTorsions>
[ 1849  621  620  617 ] final -167.54 input   60.00 | X-H torsion

> <Gold.Protein.ActiveResidues>
 HIS54   GLU57   HIS58   ALA61   PHE62   ILE76   ILE77   ASP78   ILE79   SER80  
 PRO81   GLN125  CYS126  GLY127  GLN128  HIS132  CO701  

> <Gold.Protein.RotatedAtoms>
  -18.5002   27.3121  -13.8862 H   0  0  0  0  0  0  0  0  0  0  0  0  # atno 1849 bound_to 621 
  -18.3221   28.5995  -12.9069 LP  0  0  0  0  0  0  0  0  0  0  0  0  # atno 2431 bound_to 621 
  -19.7621   28.3040  -13.6180 LP  0  0  0  0  0  0  0  0  0  0  0  0  # atno 2432 bound_to 621 

$$$$
Compound 188|DecoysActives|sdf|195|dock18
  -GOLD-   6112412163D 1   1.00000     0.00000

 40 41  0  0  0  0  0  0  0  0  1 V2000
  -25.9340   28.5155  -18.4928 S   0  0  0  0  0  0  0  0  0  0  0  0
  -24.5947   28.0495  -18.7865 O   0  0  0  0  0  0  0  0  0  0  0  0
  -26.9586   28.5990  -19.5087 O   0  0  0  0  0  0  0  0  0  0  0  0
  -26.4876   27.5127  -17.2478 N   0  0  0  0  0  0  0  0  0  0  0  0
  -25.7078   30.1675  -17.8991 C   0  0  0  0  0  0  0  0  0  0  0  0
  -26.7299   26.0497  -17.4811 C   0  0  1  0  0  0  0  0  0  0  0  0
  -24.8560   30.4980  -16.9124 N   0  0  0  0  0  0  0  0  0  0  0  0
  -26.4102   31.2239  -18.4366 N   0  0  0  0  0  0  0  0  0  0  0  0
  -25.4621   25.3248  -17.7805 C   0  0  0  0  0  0  0  0  0  0  0  0
  -27.3574   25.4952  -16.1380 C   0  0  0  0  0  0  0  0  0  0  0  0
  -27.7264   25.8294  -18.6345 C   0  0  0  0  0  0  0  0  0  0  0  0
  -25.0364   31.8338  -16.8088 N   0  0  0  0  0  0  0  0  0  0  0  0
  -25.9831   32.2589  -17.7504 C   0  0  0  0  0  0  0  0  0  0  0  0
  -24.4726   24.7456  -17.9650 N   0  0  0  0  0  0  0  0  0  0  0  0
  -28.0530   24.1313  -16.2863 C   0  0  0  0  0  0  0  0  0  0  0  0
  -26.3541   25.3978  -14.9732 C   0  0  0  0  0  0  0  0  0  0  0  0
  -24.4218   32.7400  -15.9374 C   0  0  0  0  0  0  0  0  0  0  0  0
  -26.3448   33.5687  -17.8686 N   0  0  0  0  0  0  0  0  0  0  0  0
  -24.7549   34.0407  -16.0172 C   0  0  0  0  0  0  0  0  0  0  0  0
  -23.4214   32.2117  -14.9569 C   0  0  0  0  0  0  0  0  0  0  0  0
  -25.7718   34.4068  -17.0557 C   0  0  0  0  0  0  0  0  0  0  0  0
  -26.1533   35.8629  -17.1605 C   0  0  0  0  0  0  0  0  0  0  0  0
  -25.9066   27.7088  -16.4320 H   0  0  0  0  0  0  0  0  0  0  0  0
  -28.1319   26.2085  -15.8194 H   0  0  0  0  0  0  0  0  0  0  0  0
  -27.8803   24.7639  -18.8397 H   0  0  0  0  0  0  0  0  0  0  0  0
  -27.3824   26.2542  -19.5819 H   0  0  0  0  0  0  0  0  0  0  0  0
  -28.7024   26.2693  -18.4043 H   0  0  0  0  0  0  0  0  0  0  0  0
  -27.3685   23.3659  -16.6650 H   0  0  0  0  0  0  0  0  0  0  0  0
  -28.9148   24.1894  -16.9576 H   0  0  0  0  0  0  0  0  0  0  0  0
  -28.4351   23.7854  -15.3191 H   0  0  0  0  0  0  0  0  0  0  0  0
  -26.8574   25.0482  -14.0644 H   0  0  0  0  0  0  0  0  0  0  0  0
  -25.5448   24.6938  -15.1903 H   0  0  0  0  0  0  0  0  0  0  0  0
  -25.9119   26.3680  -14.7311 H   0  0  0  0  0  0  0  0  0  0  0  0
  -24.3334   34.8119  -15.3859 H   0  0  0  0  0  0  0  0  0  0  0  0
  -23.0088   33.0091  -14.3292 H   0  0  0  0  0  0  0  0  0  0  0  0
  -22.5841   31.7355  -15.4781 H   0  0  0  0  0  0  0  0  0  0  0  0
  -23.8842   31.4746  -14.2923 H   0  0  0  0  0  0  0  0  0  0  0  0
  -25.6163   36.4738  -16.4305 H   0  0  0  0  0  0  0  0  0  0  0  0
  -27.2281   35.9670  -16.9861 H   0  0  0  0  0  0  0  0  0  0  0  0
  -25.9183   36.2252  -18.1655 H   0  0  0  0  0  0  0  0  0  0  0  0
  1  2  2  0  0  0  0
  1  3  2  0  0  0  0
  1  4  1  0  0  0  0
  1  5  1  0  0  0  0
  4  6  1  0  0  0  0
  4 23  1  0  0  0  0
  5  7  2  0  0  0  0
  5  8  1  0  0  0  0
  6  9  1  0  0  0  0
  6 10  1  0  0  0  0
  6 11  1  0  0  0  0
  7 12  1  0  0  0  0
  8 13  2  0  0  0  0
  9 14  3  0  0  0  0
 10 15  1  0  0  0  0
 10 16  1  0  0  0  0
 10 24  1  0  0  0  0
 11 25  1  0  0  0  0
 11 26  1  0  0  0  0
 11 27  1  0  0  0  0
 12 17  1  0  0  0  0
 12 13  1  0  0  0  0
 13 18  1  0  0  0  0
 15 28  1  0  0  0  0
 15 29  1  0  0  0  0
 15 30  1  0  0  0  0
 16 31  1  0  0  0  0
 16 32  1  0  0  0  0
 16 33  1  0  0  0  0
 17 19  2  0  0  0  0
 17 20  1  0  0  0  0
 18 21  2  0  0  0  0
 19 21  1  0  0  0  0
 19 34  1  0  0  0  0
 20 35  1  0  0  0  0
 20 36  1  0  0  0  0
 20 37  1  0  0  0  0
 21 22  1  0  0  0  0
 22 38  1  0  0  0  0
 22 39  1  0  0  0  0
 22 40  1  0  0  0  0
M  END
>  <Column 1>
Cc1cc(C)n2nc(S(=O)(=O)N[C@@](C)(C#N)C(C)C)nc2n1 ZINC000000036827

>  <Total Molweight>
322.392

>  <cLogP>
0.4871

>  <cLogS>
-0.755

>  <H-Acceptors>
8

>  <H-Donors>
1

>  <Total Surface Area>
240.75

>  <MMFF94 Energy>
99.599

> <Gold.Version>
5.8.1

> <Gold.Id.Protein>
ID|2FQT|mol2

> <Gold.PLP.Fitness>
56.1340

> <Gold.PLP.PLP>
-40.4456

> <Gold.PLP.part.hbond>
-2.0000

> <Gold.PLP.part.metal>
-1.8046

> <Gold.PLP.part.buried>
-1.7128

> <Gold.PLP.part.nonpolar>
-36.7820

> <Gold.PLP.part.repulsive>
0.7184

> <Gold.PLP.ligand.clash>
0.0000

> <Gold.PLP.ligand.torsion>
1.3947

> <Gold.PLP.Chemscore.Hbond>
1.7200

> <Gold.PLP.Chemscore.CHOScore>
0.0000

> <Gold.PLP.Chemscore.Metal>
1.8657

> <Gold.Chemscore.Hbonds>
donor molecule, donor type, donor heavy atom, donor atom, acceptor molecule, acceptor atom, score
      L1  H     4    23       P1   426  0.72
      P1  H   966  2177       L1     3  1.00
      P1  M  1222  1222       L1     3  0.97
      P1  M  1222  1222       L1     8  0.90

> <Gold.PLP.Chemscore.Internal.Correction>
2.1237

> <Gold.Protein.RotatedTorsions>
[ 1849  621  620  617 ] final   13.49 input   60.00 | X-H torsion

> <Gold.Protein.ActiveResidues>
 HIS54   GLU57   HIS58   ALA61   PHE62   ILE76   ILE77   ASP78   ILE79   SER80  
 PRO81   GLN125  CYS126  GLY127  GLN128  HIS132  CO701  

> <Gold.Protein.RotatedAtoms>
  -19.2070   28.8293  -13.0469 H   0  0  0  0  0  0  0  0  0  0  0  0  # atno 1849 bound_to 621 
  -19.4117   27.5520  -14.0341 LP  0  0  0  0  0  0  0  0  0  0  0  0  # atno 2431 bound_to 621 
  -17.9607   27.8238  -13.3361 LP  0  0  0  0  0  0  0  0  0  0  0  0  # atno 2432 bound_to 621 

$$$$
Compound 189|DecoysActives|sdf|196|dock9
  -GOLD-   6112412163D 1   1.00000     0.00000

 32 34  0  0  0  0  0  0  0  0  1 V2000
  -23.7074   35.5333  -17.3179 S   0  0  0  0  0  0  0  0  0  0  0  0
  -23.4443   35.8666  -18.7012 O   0  0  0  0  0  0  0  0  0  0  0  0
  -22.6788   35.6393  -16.3062 O   0  0  0  0  0  0  0  0  0  0  0  0
  -25.0506   36.4581  -16.8115 N   0  0  0  0  0  0  0  0  0  0  0  0
  -24.3353   33.8723  -17.2466 C   0  0  0  0  0  0  0  0  0  0  0  0
  -26.2699   35.6608  -16.4533 C   0  0  0  0  0  0  0  0  0  0  0  0
  -25.4257   37.5213  -17.8029 C   0  0  0  0  0  0  0  0  0  0  0  0
  -24.8425   33.3045  -18.4240 C   0  0  0  0  0  0  0  0  0  0  0  0
  -24.3232   33.1681  -16.0173 C   0  0  0  0  0  0  0  0  0  0  0  0
  -27.3572   36.6017  -15.9207 C   0  0  0  0  0  0  0  0  0  0  0  0
  -26.5479   38.3904  -17.2248 C   0  0  0  0  0  0  0  0  0  0  0  0
  -25.3138   32.0201  -18.3169 C   0  0  0  0  0  0  0  0  0  0  0  0
  -24.8129   31.8590  -15.9448 C   0  0  0  0  0  0  0  0  0  0  0  0
  -27.6994   37.6011  -16.8915 O   0  0  0  0  0  0  0  0  0  0  0  0
  -25.8660   31.1933  -19.2881 N   0  0  0  0  0  0  0  0  0  0  0  0
  -25.2982   31.3157  -17.1119 C   0  0  0  0  0  0  0  0  0  0  0  0
  -26.2007   29.9652  -18.6987 C   0  0  0  0  0  0  0  0  0  0  0  0
  -25.8401   30.0576  -17.3463 N   0  0  0  0  0  0  0  0  0  0  0  0
  -26.7046   29.0056  -19.2530 O   0  0  0  0  0  0  0  0  0  0  0  0
  -26.6395   35.1421  -17.3453 H   0  0  0  0  0  0  0  0  0  0  0  0
  -26.0313   34.9249  -15.6807 H   0  0  0  0  0  0  0  0  0  0  0  0
  -24.5617   38.1576  -18.0186 H   0  0  0  0  0  0  0  0  0  0  0  0
  -25.7648   37.0447  -18.7302 H   0  0  0  0  0  0  0  0  0  0  0  0
  -24.8612   33.8513  -19.3596 H   0  0  0  0  0  0  0  0  0  0  0  0
  -23.9353   33.6426  -15.1170 H   0  0  0  0  0  0  0  0  0  0  0  0
  -27.0353   37.0962  -14.9963 H   0  0  0  0  0  0  0  0  0  0  0  0
  -28.2647   36.0323  -15.6977 H   0  0  0  0  0  0  0  0  0  0  0  0
  -26.2118   38.9264  -16.3291 H   0  0  0  0  0  0  0  0  0  0  0  0
  -26.8598   39.1354  -17.9635 H   0  0  0  0  0  0  0  0  0  0  0  0
  -24.8114   31.3080  -15.0118 H   0  0  0  0  0  0  0  0  0  0  0  0
  -26.0260   31.4078  -20.2590 H   0  0  0  0  0  0  0  0  0  0  0  0
  -25.9754   29.3138  -16.6811 H   0  0  0  0  0  0  0  0  0  0  0  0
  1  2  2  0  0  0  0
  1  3  2  0  0  0  0
  1  4  1  0  0  0  0
  1  5  1  0  0  0  0
  4  6  1  0  0  0  0
  4  7  1  0  0  0  0
  5  8  2  0  0  0  0
  5  9  1  0  0  0  0
  6 10  1  0  0  0  0
  6 20  1  0  0  0  0
  6 21  1  0  0  0  0
  7 11  1  0  0  0  0
  7 22  1  0  0  0  0
  7 23  1  0  0  0  0
  8 12  1  0  0  0  0
  8 24  1  0  0  0  0
  9 13  2  0  0  0  0
  9 25  1  0  0  0  0
 10 14  1  0  0  0  0
 10 26  1  0  0  0  0
 10 27  1  0  0  0  0
 11 14  1  0  0  0  0
 11 28  1  0  0  0  0
 11 29  1  0  0  0  0
 12 15  1  0  0  0  0
 12 16  2  0  0  0  0
 13 16  1  0  0  0  0
 13 30  1  0  0  0  0
 15 17  1  0  0  0  0
 15 31  1  0  0  0  0
 16 18  1  0  0  0  0
 17 19  2  0  0  0  0
 17 18  1  0  0  0  0
 18 32  1  0  0  0  0
M  END
>  <Column 1>
O=c1[nH]c2ccc(S(=O)(=O)N3CCOCC3)cc2[nH]1 ZINC000000036854

>  <Total Molweight>
283.307

>  <cLogP>
-0.4059

>  <cLogS>
-1.764

>  <H-Acceptors>
7

>  <H-Donors>
2

>  <Total Surface Area>
190.85

>  <MMFF94 Energy>
-26.707

> <Gold.Version>
5.8.1

> <Gold.Id.Protein>
ID|2FQT|mol2

> <Gold.PLP.Fitness>
42.5377

> <Gold.PLP.PLP>
-32.7176

> <Gold.PLP.part.hbond>
-1.2449

> <Gold.PLP.part.metal>
-1.0000

> <Gold.PLP.part.buried>
0.1233

> <Gold.PLP.part.nonpolar>
-31.5367

> <Gold.PLP.part.repulsive>
1.8668

> <Gold.PLP.ligand.clash>
0.0000

> <Gold.PLP.ligand.torsion>
1.1073

> <Gold.PLP.Chemscore.Hbond>
1.2797

> <Gold.PLP.Chemscore.CHOScore>
0.0000

> <Gold.PLP.Chemscore.Metal>
0.9998

> <Gold.Chemscore.Hbonds>
donor molecule, donor type, donor heavy atom, donor atom, acceptor molecule, acceptor atom, score
      L1  H    18    32       P1   426  0.89
      P1  H   966  2177       L1    19  0.39
      P1  M  1222  1222       L1    19  1.00

> <Gold.PLP.Chemscore.Internal.Correction>
2.1970

> <Gold.Protein.RotatedTorsions>
[ 1849  621  620  617 ] final  -79.86 input   60.00 | X-H torsion

> <Gold.Protein.ActiveResidues>
 HIS54   GLU57   HIS58   ALA61   PHE62   ILE76   ILE77   ASP78   ILE79   SER80  
 PRO81   GLN125  CYS126  GLY127  GLN128  HIS132  CO701  

> <Gold.Protein.RotatedAtoms>
  -19.6713   27.8693  -13.8944 H   0  0  0  0  0  0  0  0  0  0  0  0  # atno 1849 bound_to 621 
  -18.1088   27.5175  -13.6065 LP  0  0  0  0  0  0  0  0  0  0  0  0  # atno 2431 bound_to 621 
  -18.7960   28.8250  -12.9102 LP  0  0  0  0  0  0  0  0  0  0  0  0  # atno 2432 bound_to 621 

$$$$
Compound 190|DecoysActives|sdf|197|dock3
  -GOLD-   6112412163D 1   1.00000     0.00000

 37 39  0  0  0  0  0  0  0  0  1 V2000
  -24.4420   35.3976  -18.9479 S   0  0  0  0  0  0  0  0  0  0  0  0
  -24.6572   35.7132  -20.3429 O   0  0  0  0  0  0  0  0  0  0  0  0
  -23.2374   35.8038  -18.2571 O   0  0  0  0  0  0  0  0  0  0  0  0
  -25.7730   35.9835  -18.0542 N   0  0  0  0  0  0  0  0  0  0  0  0
  -24.6170   33.6366  -18.7856 C   0  0  0  0  0  0  0  0  0  0  0  0
  -25.8618   35.4787  -16.6443 C   0  0  0  0  0  0  0  0  0  0  0  0
  -25.8506   37.4832  -18.0507 C   0  0  0  0  0  0  0  0  0  0  0  0
  -25.7696   33.0299  -19.2958 C   0  0  0  0  0  0  0  0  0  0  0  0
  -23.5997   32.8795  -18.1711 C   0  0  0  0  0  0  0  0  0  0  0  0
  -27.1505   35.9976  -15.9958 C   0  0  0  0  0  0  0  0  0  0  0  0
  -27.1358   37.9298  -17.3453 C   0  0  0  0  0  0  0  0  0  0  0  0
  -25.8672   31.6613  -19.1575 C   0  0  0  0  0  0  0  0  0  0  0  0
  -23.7333   31.4913  -18.0486 C   0  0  0  0  0  0  0  0  0  0  0  0
  -27.1922   37.4313  -16.0004 O   0  0  0  0  0  0  0  0  0  0  0  0
  -26.9324   30.9009  -19.5978 O   0  0  0  0  0  0  0  0  0  0  0  0
  -24.8824   30.9067  -18.5511 C   0  0  0  0  0  0  0  0  0  0  0  0
  -26.5591   29.5963  -19.2281 C   0  0  0  0  0  0  0  0  0  0  0  0
  -25.3159   29.5914  -18.5935 N   0  0  0  0  0  0  0  0  0  0  0  0
  -27.2918   28.6456  -19.4652 O   0  0  0  0  0  0  0  0  0  0  0  0
  -24.6276   28.5048  -18.0818 C   0  0  0  0  0  0  0  0  0  0  0  0
  -23.5457   28.5713  -17.5037 O   0  0  0  0  0  0  0  0  0  0  0  0
  -25.2776   27.3241  -18.2785 O   0  0  0  0  0  0  0  0  0  0  0  0
  -24.6336   26.1787  -17.7184 C   0  0  0  0  0  0  0  0  0  0  0  0
  -24.9961   35.8366  -16.0752 H   0  0  0  0  0  0  0  0  0  0  0  0
  -25.8753   34.3854  -16.6309 H   0  0  0  0  0  0  0  0  0  0  0  0
  -25.8610   37.8625  -19.0771 H   0  0  0  0  0  0  0  0  0  0  0  0
  -24.9777   37.8867  -17.5242 H   0  0  0  0  0  0  0  0  0  0  0  0
  -26.5501   33.6066  -19.7820 H   0  0  0  0  0  0  0  0  0  0  0  0
  -22.7013   33.3650  -17.7921 H   0  0  0  0  0  0  0  0  0  0  0  0
  -28.0373   35.6120  -16.5127 H   0  0  0  0  0  0  0  0  0  0  0  0
  -27.2007   35.6682  -14.9532 H   0  0  0  0  0  0  0  0  0  0  0  0
  -27.1722   39.0224  -17.2953 H   0  0  0  0  0  0  0  0  0  0  0  0
  -28.0247   37.5888  -17.8893 H   0  0  0  0  0  0  0  0  0  0  0  0
  -22.9463   30.9111  -17.5764 H   0  0  0  0  0  0  0  0  0  0  0  0
  -23.6461   26.0363  -18.1680 H   0  0  0  0  0  0  0  0  0  0  0  0
  -24.5560   26.2765  -16.6312 H   0  0  0  0  0  0  0  0  0  0  0  0
  -25.2464   25.3017  -17.9442 H   0  0  0  0  0  0  0  0  0  0  0  0
  1  2  2  0  0  0  0
  1  3  2  0  0  0  0
  1  4  1  0  0  0  0
  1  5  1  0  0  0  0
  4  6  1  0  0  0  0
  4  7  1  0  0  0  0
  5  8  2  0  0  0  0
  5  9  1  0  0  0  0
  6 10  1  0  0  0  0
  6 24  1  0  0  0  0
  6 25  1  0  0  0  0
  7 11  1  0  0  0  0
  7 26  1  0  0  0  0
  7 27  1  0  0  0  0
  8 12  1  0  0  0  0
  8 28  1  0  0  0  0
  9 13  2  0  0  0  0
  9 29  1  0  0  0  0
 10 14  1  0  0  0  0
 10 30  1  0  0  0  0
 10 31  1  0  0  0  0
 11 14  1  0  0  0  0
 11 32  1  0  0  0  0
 11 33  1  0  0  0  0
 12 15  1  0  0  0  0
 12 16  2  0  0  0  0
 13 16  1  0  0  0  0
 13 34  1  0  0  0  0
 15 17  1  0  0  0  0
 16 18  1  0  0  0  0
 17 19  2  0  0  0  0
 17 18  1  0  0  0  0
 18 20  1  0  0  0  0
 20 21  2  0  0  0  0
 20 22  1  0  0  0  0
 22 23  1  0  0  0  0
 23 35  1  0  0  0  0
 23 36  1  0  0  0  0
 23 37  1  0  0  0  0
M  END
>  <Column 1>
COC(=O)n1c(=O)oc2cc(S(=O)(=O)N3CCOCC3)ccc21 ZINC000000036863

>  <Total Molweight>
342.327

>  <cLogP>
0.7626

>  <cLogS>
-2.295

>  <H-Acceptors>
9

>  <H-Donors>
0

>  <Total Surface Area>
228.24

>  <MMFF94 Energy>
-19.189

> <Gold.Version>
5.8.1

> <Gold.Id.Protein>
ID|2FQT|mol2

> <Gold.PLP.Fitness>
44.5744

> <Gold.PLP.PLP>
-29.7626

> <Gold.PLP.part.hbond>
-1.0000

> <Gold.PLP.part.metal>
-2.0000

> <Gold.PLP.part.buried>
-0.1314

> <Gold.PLP.part.nonpolar>
-27.6433

> <Gold.PLP.part.repulsive>
0.5004

> <Gold.PLP.ligand.clash>
0.0000

> <Gold.PLP.ligand.torsion>
1.1940

> <Gold.PLP.Chemscore.Hbond>
1.0000

> <Gold.PLP.Chemscore.CHOScore>
0.0000

> <Gold.PLP.Chemscore.Metal>
1.9986

> <Gold.Chemscore.Hbonds>
donor molecule, donor type, donor heavy atom, donor atom, acceptor molecule, acceptor atom, score
      P1  H   966  2177       L1    19  1.00
      P1  M  1222  1222       L1    15  1.00
      P1  M  1222  1222       L1    19  1.00

> <Gold.PLP.Chemscore.Internal.Correction>
2.2082

> <Gold.Protein.RotatedTorsions>
[ 1849  621  620  617 ] final  -37.42 input   60.00 | X-H torsion

> <Gold.Protein.ActiveResidues>
 HIS54   GLU57   HIS58   ALA61   PHE62   ILE76   ILE77   ASP78   ILE79   SER80  
 PRO81   GLN125  CYS126  GLY127  GLN128  HIS132  CO701  

> <Gold.Protein.RotatedAtoms>
  -19.7249   28.4276  -13.5138 H   0  0  0  0  0  0  0  0  0  0  0  0  # atno 1849 bound_to 621 
  -18.6488   27.2900  -13.9565 LP  0  0  0  0  0  0  0  0  0  0  0  0  # atno 2431 bound_to 621 
  -18.2021   28.4903  -12.9434 LP  0  0  0  0  0  0  0  0  0  0  0  0  # atno 2432 bound_to 621 

$$$$
Compound 191|DecoysActives|sdf|198|dock2
  -GOLD-   6112412163D 1   1.00000     0.00000

 36 37  0  0  0  0  0  0  0  0  1 V2000
  -23.6585   35.4776  -17.4052 S   0  0  0  0  0  0  0  0  0  0  0  0
  -23.2468   35.7935  -18.7564 O   0  0  0  0  0  0  0  0  0  0  0  0
  -22.7141   35.5035  -16.3084 O   0  0  0  0  0  0  0  0  0  0  0  0
  -24.9520   36.4962  -17.0024 N   0  0  0  0  0  0  0  0  0  0  0  0
  -24.3970   33.8555  -17.4355 C   0  0  0  0  0  0  0  0  0  0  0  0
  -25.1961   37.6679  -17.8894 C   0  0  0  0  0  0  0  0  0  0  0  0
  -26.2295   35.8455  -16.5987 C   0  0  0  0  0  0  0  0  0  0  0  0
  -24.5126   33.1244  -16.2485 C   0  0  0  0  0  0  0  0  0  0  0  0
  -24.9217   33.3566  -18.6326 C   0  0  0  0  0  0  0  0  0  0  0  0
  -26.1636   38.6363  -17.1977 C   0  0  0  0  0  0  0  0  0  0  0  0
  -27.1532   36.8910  -15.9615 C   0  0  0  0  0  0  0  0  0  0  0  0
  -25.1161   31.8652  -16.2710 C   0  0  0  0  0  0  0  0  0  0  0  0
  -25.5264   32.0980  -18.6482 C   0  0  0  0  0  0  0  0  0  0  0  0
  -27.3981   37.9815  -16.8642 O   0  0  0  0  0  0  0  0  0  0  0  0
  -25.6049   31.3491  -17.4733 C   0  0  0  0  0  0  0  0  0  0  0  0
  -26.2642   30.0856  -17.4866 N   0  0  0  0  0  0  0  0  0  0  0  0
  -26.4241   29.3212  -18.9929 S   0  0  0  0  0  0  0  0  0  0  0  0
  -26.9796   28.0173  -18.6976 O   0  0  0  0  0  0  0  0  0  0  0  0
  -27.0498   30.2109  -19.9440 O   0  0  0  0  0  0  0  0  0  0  0  0
  -24.7187   29.0911  -19.4437 C   0  0  0  0  0  0  0  0  0  0  0  0
  -25.6397   37.3218  -18.8295 H   0  0  0  0  0  0  0  0  0  0  0  0
  -24.2608   38.1931  -18.1034 H   0  0  0  0  0  0  0  0  0  0  0  0
  -26.0450   35.0466  -15.8748 H   0  0  0  0  0  0  0  0  0  0  0  0
  -26.7153   35.4246  -17.4858 H   0  0  0  0  0  0  0  0  0  0  0  0
  -24.1541   33.5325  -15.3058 H   0  0  0  0  0  0  0  0  0  0  0  0
  -24.8736   33.9425  -19.5480 H   0  0  0  0  0  0  0  0  0  0  0  0
  -25.7223   39.0555  -16.2857 H   0  0  0  0  0  0  0  0  0  0  0  0
  -26.4006   39.4681  -17.8687 H   0  0  0  0  0  0  0  0  0  0  0  0
  -28.1195   36.4366  -15.7213 H   0  0  0  0  0  0  0  0  0  0  0  0
  -26.7264   37.2846  -15.0313 H   0  0  0  0  0  0  0  0  0  0  0  0
  -25.2234   31.3080  -15.3439 H   0  0  0  0  0  0  0  0  0  0  0  0
  -25.9295   31.7098  -19.5788 H   0  0  0  0  0  0  0  0  0  0  0  0
  -27.1778   30.0714  -17.0269 H   0  0  0  0  0  0  0  0  0  0  0  0
  -24.2522   30.0658  -19.5926 H   0  0  0  0  0  0  0  0  0  0  0  0
  -24.2151   28.5289  -18.6551 H   0  0  0  0  0  0  0  0  0  0  0  0
  -24.6926   28.5237  -20.3767 H   0  0  0  0  0  0  0  0  0  0  0  0
  1  2  2  0  0  0  0
  1  3  2  0  0  0  0
  1  4  1  0  0  0  0
  1  5  1  0  0  0  0
  4  6  1  0  0  0  0
  4  7  1  0  0  0  0
  5  8  2  0  0  0  0
  5  9  1  0  0  0  0
  6 10  1  0  0  0  0
  6 21  1  0  0  0  0
  6 22  1  0  0  0  0
  7 11  1  0  0  0  0
  7 23  1  0  0  0  0
  7 24  1  0  0  0  0
  8 12  1  0  0  0  0
  8 25  1  0  0  0  0
  9 13  2  0  0  0  0
  9 26  1  0  0  0  0
 10 14  1  0  0  0  0
 10 27  1  0  0  0  0
 10 28  1  0  0  0  0
 11 14  1  0  0  0  0
 11 29  1  0  0  0  0
 11 30  1  0  0  0  0
 12 15  2  0  0  0  0
 12 31  1  0  0  0  0
 13 15  1  0  0  0  0
 13 32  1  0  0  0  0
 15 16  1  0  0  0  0
 16 17  1  0  0  0  0
 16 33  1  0  0  0  0
 17 18  2  0  0  0  0
 17 19  2  0  0  0  0
 17 20  1  0  0  0  0
 20 34  1  0  0  0  0
 20 35  1  0  0  0  0
 20 36  1  0  0  0  0
M  END
>  <Column 1>
CS(=O)(=O)Nc1ccc(S(=O)(=O)N2CCOCC2)cc1 ZINC000000036971

>  <Total Molweight>
320.389

>  <cLogP>
-0.2489

>  <cLogS>
-1.909

>  <H-Acceptors>
7

>  <H-Donors>
1

>  <Total Surface Area>
215.98

>  <MMFF94 Energy>
-26.011

> <Gold.Version>
5.8.1

> <Gold.Id.Protein>
ID|2FQT|mol2

> <Gold.PLP.Fitness>
54.7335

> <Gold.PLP.PLP>
-33.9238

> <Gold.PLP.part.hbond>
-1.8572

> <Gold.PLP.part.metal>
-2.9643

> <Gold.PLP.part.buried>
0.5872

> <Gold.PLP.part.nonpolar>
-29.8235

> <Gold.PLP.part.repulsive>
0.1784

> <Gold.PLP.ligand.clash>
0.0086

> <Gold.PLP.ligand.torsion>
1.5512

> <Gold.PLP.Chemscore.Hbond>
1.2387

> <Gold.PLP.Chemscore.CHOScore>
0.0000

> <Gold.PLP.Chemscore.Metal>
2.9348

> <Gold.Chemscore.Hbonds>
donor molecule, donor type, donor heavy atom, donor atom, acceptor molecule, acceptor atom, score
      L1  H    16    33       P1   437  0.24
      P1  H   966  2177       L1    19  1.00
      P1  M  1222  1222       L1    16  1.00
      P1  M  1222  1222       L1    18  0.94
      P1  M  1222  1222       L1    19  1.00

> <Gold.PLP.Chemscore.Internal.Correction>
2.5958

> <Gold.Protein.RotatedTorsions>
[ 1849  621  620  617 ] final   92.84 input   60.00 | X-H torsion

> <Gold.Protein.ActiveResidues>
 HIS54   GLU57   HIS58   ALA61   PHE62   ILE76   ILE77   ASP78   ILE79   SER80  
 PRO81   GLN125  CYS126  GLY127  GLN128  HIS132  CO701  

> <Gold.Protein.RotatedAtoms>
  -18.1074   28.3628  -12.9986 H   0  0  0  0  0  0  0  0  0  0  0  0  # atno 1849 bound_to 621 
  -19.6705   28.5491  -13.4111 LP  0  0  0  0  0  0  0  0  0  0  0  0  # atno 2431 bound_to 621 
  -18.8093   27.2964  -14.0077 LP  0  0  0  0  0  0  0  0  0  0  0  0  # atno 2432 bound_to 621 

$$$$
Compound 192|DecoysActives|sdf|199|dock4
  -GOLD-   6112412163D 1   1.00000     0.00000

 37 38  0  0  0  0  0  0  0  0  1 V2000
  -25.2860   34.2410  -18.8054 S   0  0  0  0  0  0  0  0  0  0  0  0
  -25.5278   33.3844  -17.3981 C   0  0  0  0  0  0  0  0  0  0  0  0
  -25.5215   32.0051  -17.4364 N   0  0  0  0  0  0  0  0  0  0  0  0
  -25.7453   33.8941  -16.1480 N   0  0  0  0  0  0  0  0  0  0  0  0
  -25.3123   31.2937  -18.6391 N   0  0  0  0  0  0  0  0  0  0  0  0
  -25.7639   35.2882  -15.7190 C   0  0  0  0  0  0  0  0  0  0  0  0
  -26.3965   31.5714  -19.6047 C   0  0  0  0  0  0  0  0  0  0  0  0
  -25.2500   29.8396  -18.3797 C   0  0  0  0  0  0  0  0  0  0  0  0
  -24.4304   35.9601  -16.0674 C   0  0  0  0  0  0  0  0  0  0  0  0
  -26.9375   36.0320  -16.3691 C   0  0  0  0  0  0  0  0  0  0  0  0
  -26.2030   30.7519  -20.8874 C   0  0  0  0  0  0  0  0  0  0  0  0
  -25.0840   29.0616  -19.6917 C   0  0  0  0  0  0  0  0  0  0  0  0
  -24.4325   37.4411  -15.6987 C   0  0  0  0  0  0  0  0  0  0  0  0
  -26.9374   37.5138  -16.0023 C   0  0  0  0  0  0  0  0  0  0  0  0
  -26.1546   29.3476  -20.6018 O   0  0  0  0  0  0  0  0  0  0  0  0
  -25.6055   38.1775  -16.3390 C   0  0  0  0  0  0  0  0  0  0  0  0
  -25.6779   31.5112  -16.5603 H   0  0  0  0  0  0  0  0  0  0  0  0
  -25.8233   33.1613  -15.4497 H   0  0  0  0  0  0  0  0  0  0  0  0
  -25.8886   35.3163  -14.6302 H   0  0  0  0  0  0  0  0  0  0  0  0
  -27.3680   31.3199  -19.1588 H   0  0  0  0  0  0  0  0  0  0  0  0
  -26.4062   32.6379  -19.8577 H   0  0  0  0  0  0  0  0  0  0  0  0
  -26.1694   29.5097  -17.8780 H   0  0  0  0  0  0  0  0  0  0  0  0
  -24.4047   29.6146  -17.7192 H   0  0  0  0  0  0  0  0  0  0  0  0
  -24.2268   35.8539  -17.1412 H   0  0  0  0  0  0  0  0  0  0  0  0
  -23.6096   35.4532  -15.5454 H   0  0  0  0  0  0  0  0  0  0  0  0
  -26.8843   35.9277  -17.4609 H   0  0  0  0  0  0  0  0  0  0  0  0
  -27.8896   35.5822  -16.0634 H   0  0  0  0  0  0  0  0  0  0  0  0
  -25.2866   31.0454  -21.4135 H   0  0  0  0  0  0  0  0  0  0  0  0
  -27.0447   30.9220  -21.5664 H   0  0  0  0  0  0  0  0  0  0  0  0
  -24.1274   29.2942  -20.1748 H   0  0  0  0  0  0  0  0  0  0  0  0
  -25.1012   27.9859  -19.4894 H   0  0  0  0  0  0  0  0  0  0  0  0
  -23.4904   37.9015  -16.0167 H   0  0  0  0  0  0  0  0  0  0  0  0
  -24.4871   37.5454  -14.6080 H   0  0  0  0  0  0  0  0  0  0  0  0
  -27.1392   37.6234  -14.9297 H   0  0  0  0  0  0  0  0  0  0  0  0
  -27.7482   38.0248  -16.5335 H   0  0  0  0  0  0  0  0  0  0  0  0
  -25.6164   39.2194  -15.9998 H   0  0  0  0  0  0  0  0  0  0  0  0
  -25.4730   38.1969  -17.4277 H   0  0  0  0  0  0  0  0  0  0  0  0
  1  2  2  0  0  0  0
  2  3  1  0  0  0  0
  2  4  1  0  0  0  0
  3  5  1  0  0  0  0
  3 17  1  0  0  0  0
  4  6  1  0  0  0  0
  4 18  1  0  0  0  0
  5  7  1  0  0  0  0
  5  8  1  0  0  0  0
  6  9  1  0  0  0  0
  6 10  1  0  0  0  0
  6 19  1  0  0  0  0
  7 11  1  0  0  0  0
  7 20  1  0  0  0  0
  7 21  1  0  0  0  0
  8 12  1  0  0  0  0
  8 22  1  0  0  0  0
  8 23  1  0  0  0  0
  9 13  1  0  0  0  0
  9 24  1  0  0  0  0
  9 25  1  0  0  0  0
 10 14  1  0  0  0  0
 10 26  1  0  0  0  0
 10 27  1  0  0  0  0
 11 15  1  0  0  0  0
 11 28  1  0  0  0  0
 11 29  1  0  0  0  0
 12 15  1  0  0  0  0
 12 30  1  0  0  0  0
 12 31  1  0  0  0  0
 13 16  1  0  0  0  0
 13 32  1  0  0  0  0
 13 33  1  0  0  0  0
 14 16  1  0  0  0  0
 14 34  1  0  0  0  0
 14 35  1  0  0  0  0
 16 36  1  0  0  0  0
 16 37  1  0  0  0  0
M  END
>  <Column 1>
S=C(NC1CCCCC1)NN1CCOCC1 ZINC000000037285

>  <Total Molweight>
243.374

>  <cLogP>
0.1451

>  <cLogS>
-2.087

>  <H-Acceptors>
4

>  <H-Donors>
2

>  <Total Surface Area>
198.77

>  <MMFF94 Energy>
33.962

> <Gold.Version>
5.8.1

> <Gold.Id.Protein>
ID|2FQT|mol2

> <Gold.PLP.Fitness>
38.6569

> <Gold.PLP.PLP>
-37.5475

> <Gold.PLP.part.hbond>
-1.0000

> <Gold.PLP.part.metal>
0.0000

> <Gold.PLP.part.buried>
-3.1683

> <Gold.PLP.part.nonpolar>
-33.8687

> <Gold.PLP.part.repulsive>
0.2402

> <Gold.PLP.ligand.clash>
0.0053

> <Gold.PLP.ligand.torsion>
0.0332

> <Gold.PLP.Chemscore.Hbond>
0.3921

> <Gold.PLP.Chemscore.CHOScore>
0.0000

> <Gold.PLP.Chemscore.Metal>
0.0000

> <Gold.Chemscore.Hbonds>
donor molecule, donor type, donor heavy atom, donor atom, acceptor molecule, acceptor atom, score
      P1  H   966  2177       L1    15  0.39

> <Gold.PLP.Chemscore.Internal.Correction>
0.0048

> <Gold.Protein.RotatedTorsions>
[ 1849  621  620  617 ] final  176.40 input   60.00 | X-H torsion

> <Gold.Protein.ActiveResidues>
 HIS54   GLU57   HIS58   ALA61   PHE62   ILE76   ILE77   ASP78   ILE79   SER80  
 PRO81   GLN125  CYS126  GLY127  GLN128  HIS132  CO701  

> <Gold.Protein.RotatedAtoms>
  -18.2859   27.3886  -13.7571 H   0  0  0  0  0  0  0  0  0  0  0  0  # atno 1849 bound_to 621 
  -18.5452   28.7380  -12.8854 LP  0  0  0  0  0  0  0  0  0  0  0  0  # atno 2431 bound_to 621 
  -19.7549   28.0886  -13.7695 LP  0  0  0  0  0  0  0  0  0  0  0  0  # atno 2432 bound_to 621 

$$$$
Compound 193|DecoysActives|sdf|200|dock8
  -GOLD-   6112412163D 1   1.00000     0.00000

 22 23  0  0  0  0  0  0  0  0  1 V2000
  -24.1628   35.3647  -17.1031 S   0  0  0  0  0  0  0  0  0  0  0  0
  -25.7643   34.7771  -16.9983 C   0  0  0  0  0  0  0  0  0  0  0  0
  -24.5138   36.7176  -16.1176 C   0  0  0  0  0  0  0  0  0  0  0  0
  -26.5534   35.6008  -16.2197 C   0  0  0  0  0  0  0  0  0  0  0  0
  -26.1670   33.5575  -17.6633 C   0  0  0  0  0  0  0  0  0  0  0  0
  -25.8316   36.7209  -15.7123 C   0  0  0  0  0  0  0  0  0  0  0  0
  -23.4428   37.7060  -15.8064 C   0  0  0  0  0  0  0  0  0  0  0  0
  -25.3295   32.6160  -17.9514 N   0  0  0  0  0  0  0  0  0  0  0  0
  -25.9041   31.5283  -18.5213 N   0  0  0  0  0  0  0  0  0  0  0  0
  -26.2644   30.4765  -17.7653 N   0  0  0  0  0  0  0  0  0  0  0  0
  -26.2723   31.2615  -19.8468 C   0  0  0  0  0  0  0  0  0  0  0  0
  -26.7124   29.5587  -18.6107 N   0  0  0  0  0  0  0  0  0  0  0  0
  -26.7146   30.0256  -19.9016 N   0  0  0  0  0  0  0  0  0  0  0  0
  -26.2035   32.1570  -20.8573 N   0  0  0  0  0  0  0  0  0  0  0  0
  -27.6030   35.4187  -16.0209 H   0  0  0  0  0  0  0  0  0  0  0  0
  -27.2411   33.4999  -17.9268 H   0  0  0  0  0  0  0  0  0  0  0  0
  -26.2611   37.4916  -15.0829 H   0  0  0  0  0  0  0  0  0  0  0  0
  -23.8254   38.5082  -15.1667 H   0  0  0  0  0  0  0  0  0  0  0  0
  -23.0583   38.1639  -16.7236 H   0  0  0  0  0  0  0  0  0  0  0  0
  -22.6118   37.2255  -15.2798 H   0  0  0  0  0  0  0  0  0  0  0  0
  -25.8631   33.0936  -20.6591 H   0  0  0  0  0  0  0  0  0  0  0  0
  -26.2314   31.8947  -21.8363 H   0  0  0  0  0  0  0  0  0  0  0  0
  1  2  1  0  0  0  0
  1  3  1  0  0  0  0
  2  4  2  0  0  0  0
  2  5  1  0  0  0  0
  3  6  2  0  0  0  0
  3  7  1  0  0  0  0
  4  6  1  0  0  0  0
  4 15  1  0  0  0  0
  5  8  2  0  0  0  0
  5 16  1  0  0  0  0
  6 17  1  0  0  0  0
  7 18  1  0  0  0  0
  7 19  1  0  0  0  0
  7 20  1  0  0  0  0
  8  9  1  0  0  0  0
  9 10  1  0  0  0  0
  9 11  1  0  0  0  0
 10 12  2  0  0  0  0
 11 13  2  0  0  0  0
 11 14  1  0  0  0  0
 12 13  1  0  0  0  0
 14 21  1  0  0  0  0
 14 22  1  0  0  0  0
M  END
>  <Column 1>
Cc1ccc(/C=N/n2nnnc2N)s1 ZINC000000037734

>  <Total Molweight>
208.249

>  <cLogP>
1.5192

>  <cLogS>
-4.251

>  <H-Acceptors>
6

>  <H-Donors>
1

>  <Total Surface Area>
159.98

>  <MMFF94 Energy>
48.032

> <Gold.Version>
5.8.1

> <Gold.Id.Protein>
ID|2FQT|mol2

> <Gold.PLP.Fitness>
51.6729

> <Gold.PLP.PLP>
-33.1100

> <Gold.PLP.part.hbond>
-1.5436

> <Gold.PLP.part.metal>
-2.6190

> <Gold.PLP.part.buried>
-3.2094

> <Gold.PLP.part.nonpolar>
-25.8315

> <Gold.PLP.part.repulsive>
0.3485

> <Gold.PLP.ligand.clash>
0.0000

> <Gold.PLP.ligand.torsion>
0.8802

> <Gold.PLP.Chemscore.Hbond>
0.9913

> <Gold.PLP.Chemscore.CHOScore>
0.0000

> <Gold.PLP.Chemscore.Metal>
2.8914

> <Gold.Chemscore.Hbonds>
donor molecule, donor type, donor heavy atom, donor atom, acceptor molecule, acceptor atom, score
      P1  H   966  2177       L1    13  0.99
      P1  M  1222  1222       L1    10  1.00
      P1  M  1222  1222       L1    12  1.00
      P1  M  1222  1222       L1    13  0.90

> <Gold.PLP.Chemscore.Internal.Correction>
0.0009

> <Gold.Protein.RotatedTorsions>
[ 1849  621  620  617 ] final  -50.03 input   60.00 | X-H torsion

> <Gold.Protein.ActiveResidues>
 HIS54   GLU57   HIS58   ALA61   PHE62   ILE76   ILE77   ASP78   ILE79   SER80  
 PRO81   GLN125  CYS126  GLY127  GLN128  HIS132  CO701  

> <Gold.Protein.RotatedAtoms>
  -19.7600   28.2687  -13.6396 H   0  0  0  0  0  0  0  0  0  0  0  0  # atno 1849 bound_to 621 
  -18.4613   27.3163  -13.8727 LP  0  0  0  0  0  0  0  0  0  0  0  0  # atno 2431 bound_to 621 
  -18.3543   28.6240  -12.9006 LP  0  0  0  0  0  0  0  0  0  0  0  0  # atno 2432 bound_to 621 

$$$$
Compound 194|DecoysActives|sdf|201|dock12
  -GOLD-   6112412163D 1   1.00000     0.00000

 18 18  0  0  0  0  0  0  0  0  1 V2000
  -25.8998   30.8767  -22.1184 F   0  0  0  0  0  0  0  0  0  0  0  0
  -26.0166   30.7363  -20.7897 C   0  0  0  0  0  0  0  0  0  0  0  0
  -26.4041   29.5360  -20.3349 N   0  0  0  0  0  0  0  0  0  0  0  0
  -25.7352   31.8167  -19.9990 C   0  0  0  0  0  0  0  0  0  0  0  0
  -26.5079   29.4387  -19.0058 C   0  0  0  0  0  0  0  0  0  0  0  0
  -25.8775   31.5942  -18.6570 C   0  0  0  0  0  0  0  0  0  0  0  0
  -26.8987   28.2493  -18.4305 O   0  0  0  0  0  0  0  0  0  0  0  0
  -26.2607   30.4211  -18.1315 N   0  0  0  0  0  0  0  0  0  0  0  0
  -25.6010   32.6652  -17.8295 O   0  0  0  0  0  0  0  0  0  0  0  0
  -26.7943   27.1399  -19.3128 C   0  0  0  0  0  0  0  0  0  0  0  0
  -25.1053   32.2746  -16.5516 C   0  0  0  0  0  0  0  0  0  0  0  0
  -25.4261   32.7651  -20.4090 H   0  0  0  0  0  0  0  0  0  0  0  0
  -27.1242   26.2493  -18.7692 H   0  0  0  0  0  0  0  0  0  0  0  0
  -27.4501   27.2592  -20.1823 H   0  0  0  0  0  0  0  0  0  0  0  0
  -25.7565   26.9733  -19.6224 H   0  0  0  0  0  0  0  0  0  0  0  0
  -24.9180   33.1855  -15.9749 H   0  0  0  0  0  0  0  0  0  0  0  0
  -25.8449   31.6800  -16.0045 H   0  0  0  0  0  0  0  0  0  0  0  0
  -24.1553   31.7366  -16.6424 H   0  0  0  0  0  0  0  0  0  0  0  0
  1  2  1  0  0  0  0
  2  3  2  0  0  0  0
  2  4  1  0  0  0  0
  3  5  1  0  0  0  0
  4  6  2  0  0  0  0
  4 12  1  0  0  0  0
  5  7  1  0  0  0  0
  5  8  2  0  0  0  0
  6  9  1  0  0  0  0
  6  8  1  0  0  0  0
  7 10  1  0  0  0  0
  9 11  1  0  0  0  0
 10 13  1  0  0  0  0
 10 14  1  0  0  0  0
 10 15  1  0  0  0  0
 11 16  1  0  0  0  0
 11 17  1  0  0  0  0
 11 18  1  0  0  0  0
M  END
>  <Column 1>
COc1cc(F)nc(OC)n1 ZINC000000039053

>  <Total Molweight>
158.132

>  <cLogP>
1.1295

>  <cLogS>
-2.283

>  <H-Acceptors>
4

>  <H-Donors>
0

>  <Total Surface Area>
121.65

>  <MMFF94 Energy>
-86.234

> <Gold.Version>
5.8.1

> <Gold.Id.Protein>
ID|2FQT|mol2

> <Gold.PLP.Fitness>
34.4649

> <Gold.PLP.PLP>
-21.1196

> <Gold.PLP.part.hbond>
-1.0000

> <Gold.PLP.part.metal>
-2.0000

> <Gold.PLP.part.buried>
1.9670

> <Gold.PLP.part.nonpolar>
-20.6012

> <Gold.PLP.part.repulsive>
0.1758

> <Gold.PLP.ligand.clash>
0.0000

> <Gold.PLP.ligand.torsion>
0.5918

> <Gold.PLP.Chemscore.Hbond>
0.8480

> <Gold.PLP.Chemscore.CHOScore>
0.0000

> <Gold.PLP.Chemscore.Metal>
1.9975

> <Gold.Chemscore.Hbonds>
donor molecule, donor type, donor heavy atom, donor atom, acceptor molecule, acceptor atom, score
      P1  H   966  2177       L1     3  0.85
      P1  M  1222  1222       L1     3  0.00
      P1  M  1222  1222       L1     7  1.00
      P1  M  1222  1222       L1     8  1.00

> <Gold.PLP.Chemscore.Internal.Correction>
0.0000

> <Gold.Protein.RotatedTorsions>
[ 1849  621  620  617 ] final -169.89 input   60.00 | X-H torsion

> <Gold.Protein.ActiveResidues>
 HIS54   GLU57   HIS58   ALA61   PHE62   ILE76   ILE77   ASP78   ILE79   SER80  
 PRO81   GLN125  CYS126  GLY127  GLN128  HIS132  CO701  

> <Gold.Protein.RotatedAtoms>
  -18.4667   27.3197  -13.8691 H   0  0  0  0  0  0  0  0  0  0  0  0  # atno 1849 bound_to 621 
  -18.3525   28.6227  -12.9009 LP  0  0  0  0  0  0  0  0  0  0  0  0  # atno 2431 bound_to 621 
  -19.7655   28.2733  -13.6412 LP  0  0  0  0  0  0  0  0  0  0  0  0  # atno 2432 bound_to 621 

$$$$
Compound 195|DecoysActives|sdf|202|dock1
  -GOLD-   6112412163D 1   1.00000     0.00000

 29 30  0  0  0  0  0  0  0  0  1 V2000
  -26.2520   34.3448  -17.8048 N   0  0  0  0  0  0  0  0  0  0  0  0
  -25.8224   34.7210  -16.6028 C   0  0  0  0  0  0  0  0  0  0  0  0
  -25.9027   33.1349  -18.2099 C   0  0  0  0  0  0  0  0  0  0  0  0
  -25.0819   33.9316  -15.8273 N   0  0  0  0  0  0  0  0  0  0  0  0
  -26.1622   35.9763  -16.1349 N   0  0  0  0  0  0  0  0  0  0  0  0
  -25.1706   32.2822  -17.5144 N   0  0  0  0  0  0  0  0  0  0  0  0
  -26.3309   32.7336  -19.4422 N   0  0  0  0  0  0  0  0  0  0  0  0
  -24.7779   32.7308  -16.3230 C   0  0  0  0  0  0  0  0  0  0  0  0
  -25.1161   36.8215  -15.6011 C   0  0  0  0  0  0  0  0  0  0  0  0
  -27.4042   36.5646  -16.5894 C   0  0  0  0  0  0  0  0  0  0  0  0
  -23.9352   31.8190  -15.4772 C   0  0  0  0  0  0  0  0  0  0  0  0
  -22.5400   32.2093  -15.5294 N   0  0  0  0  0  0  0  0  0  0  0  0
  -22.0092   33.1647  -16.3495 C   0  0  0  0  0  0  0  0  0  0  0  0
  -21.5105   31.6531  -14.8206 C   0  0  0  0  0  0  0  0  0  0  0  0
  -20.7060   33.2495  -16.2042 N   0  0  0  0  0  0  0  0  0  0  0  0
  -20.3859   32.3178  -15.2508 C   0  0  0  0  0  0  0  0  0  0  0  0
  -26.8886   33.3751  -19.9787 H   0  0  0  0  0  0  0  0  0  0  0  0
  -26.0349   31.8374  -19.7859 H   0  0  0  0  0  0  0  0  0  0  0  0
  -24.5715   36.3240  -14.7905 H   0  0  0  0  0  0  0  0  0  0  0  0
  -24.4057   37.1065  -16.3851 H   0  0  0  0  0  0  0  0  0  0  0  0
  -25.5307   37.7435  -15.1785 H   0  0  0  0  0  0  0  0  0  0  0  0
  -28.2582   35.9079  -16.3877 H   0  0  0  0  0  0  0  0  0  0  0  0
  -27.3652   36.7793  -17.6632 H   0  0  0  0  0  0  0  0  0  0  0  0
  -27.6068   37.5079  -16.0702 H   0  0  0  0  0  0  0  0  0  0  0  0
  -24.0082   30.7829  -15.8262 H   0  0  0  0  0  0  0  0  0  0  0  0
  -24.2621   31.8471  -14.4319 H   0  0  0  0  0  0  0  0  0  0  0  0
  -22.6091   33.7637  -17.0237 H   0  0  0  0  0  0  0  0  0  0  0  0
  -21.6551   30.8669  -14.0929 H   0  0  0  0  0  0  0  0  0  0  0  0
  -19.3634   32.1739  -14.9268 H   0  0  0  0  0  0  0  0  0  0  0  0
  1  2  2  0  0  0  0
  1  3  1  0  0  0  0
  2  4  1  0  0  0  0
  2  5  1  0  0  0  0
  3  6  2  0  0  0  0
  3  7  1  0  0  0  0
  4  8  2  0  0  0  0
  5  9  1  0  0  0  0
  5 10  1  0  0  0  0
  6  8  1  0  0  0  0
  7 17  1  0  0  0  0
  7 18  1  0  0  0  0
  8 11  1  0  0  0  0
  9 19  1  0  0  0  0
  9 20  1  0  0  0  0
  9 21  1  0  0  0  0
 10 22  1  0  0  0  0
 10 23  1  0  0  0  0
 10 24  1  0  0  0  0
 11 12  1  0  0  0  0
 11 25  1  0  0  0  0
 11 26  1  0  0  0  0
 12 13  1  0  0  0  0
 12 14  1  0  0  0  0
 13 15  2  0  0  0  0
 13 27  1  0  0  0  0
 14 16  2  0  0  0  0
 14 28  1  0  0  0  0
 15 16  1  0  0  0  0
 16 29  1  0  0  0  0
M  END
>  <Column 1>
CN(C)c1nc(N)nc(Cn2ccnc2)n1 ZINC000000039075

>  <Total Molweight>
219.251

>  <cLogP>
-0.5292

>  <cLogS>
-0.195

>  <H-Acceptors>
7

>  <H-Donors>
1

>  <Total Surface Area>
174.36

>  <MMFF94 Energy>
-190.41

> <Gold.Version>
5.8.1

> <Gold.Id.Protein>
ID|2FQT|mol2

> <Gold.PLP.Fitness>
42.8581

> <Gold.PLP.PLP>
-36.4723

> <Gold.PLP.part.hbond>
-1.0000

> <Gold.PLP.part.metal>
0.0000

> <Gold.PLP.part.buried>
-5.8668

> <Gold.PLP.part.nonpolar>
-30.8533

> <Gold.PLP.part.repulsive>
0.2467

> <Gold.PLP.ligand.clash>
0.0000

> <Gold.PLP.ligand.torsion>
0.8892

> <Gold.PLP.Chemscore.Hbond>
0.8284

> <Gold.PLP.Chemscore.CHOScore>
1.8588

> <Gold.PLP.Chemscore.Metal>
0.0000

> <Gold.Chemscore.Hbonds>
donor molecule, donor type, donor heavy atom, donor atom, acceptor molecule, acceptor atom, score
      L1  H     7    17       P1   954  0.83
      L1  C    14    28       P1   611  1.00
      L1  C    16    29       P1   606  0.86

> <Gold.PLP.Chemscore.Internal.Correction>
0.1028

> <Gold.Protein.RotatedTorsions>
[ 1849  621  620  617 ] final  -84.96 input   60.00 | X-H torsion

> <Gold.Protein.ActiveResidues>
 HIS54   GLU57   HIS58   ALA61   PHE62   ILE76   ILE77   ASP78   ILE79   SER80  
 PRO81   GLN125  CYS126  GLY127  GLN128  HIS132  CO701  

> <Gold.Protein.RotatedAtoms>
  -19.6331   27.8035  -13.9282 H   0  0  0  0  0  0  0  0  0  0  0  0  # atno 1849 bound_to 621 
  -18.0666   27.5687  -13.5552 LP  0  0  0  0  0  0  0  0  0  0  0  0  # atno 2431 bound_to 621 
  -18.8767   28.8401  -12.9275 LP  0  0  0  0  0  0  0  0  0  0  0  0  # atno 2432 bound_to 621 

$$$$
Compound 196|DecoysActives|sdf|203|dock18
  -GOLD-   6112412173D 1   1.00000     0.00000

 20 20  0  0  0  0  0  0  0  0  1 V2000
  -24.8678   31.7504  -16.7268 F   0  0  0  0  0  0  0  0  0  0  0  0
  -25.3923   32.9474  -17.0314 C   0  0  0  0  0  0  0  0  0  0  0  0
  -25.6813   33.1779  -18.3166 N   0  0  0  0  0  0  0  0  0  0  0  0
  -25.5925   33.8407  -16.0138 C   0  0  0  0  0  0  0  0  0  0  0  0
  -26.1884   34.3790  -18.5857 C   0  0  0  0  0  0  0  0  0  0  0  0
  -26.1366   35.0454  -16.3766 C   0  0  0  0  0  0  0  0  0  0  0  0
  -26.4187   35.3200  -17.6601 N   0  0  0  0  0  0  0  0  0  0  0  0
  -26.5085   34.7167  -19.8705 N   0  0  0  0  0  0  0  0  0  0  0  0
  -26.3316   36.0164  -15.4056 N   0  0  0  0  0  0  0  0  0  0  0  0
  -26.1893   36.0030  -20.4156 C   0  0  0  0  0  0  0  0  0  0  0  0
  -27.1009   37.1927  -15.7396 C   0  0  0  0  0  0  0  0  0  0  0  0
  -25.3255   33.5959  -14.9976 H   0  0  0  0  0  0  0  0  0  0  0  0
  -26.9944   34.0106  -20.3990 H   0  0  0  0  0  0  0  0  0  0  0  0
  -26.3163   35.7256  -14.4378 H   0  0  0  0  0  0  0  0  0  0  0  0
  -25.1082   36.1783  -20.4166 H   0  0  0  0  0  0  0  0  0  0  0  0
  -26.6820   36.8059  -19.8571 H   0  0  0  0  0  0  0  0  0  0  0  0
  -26.5351   36.0596  -21.4525 H   0  0  0  0  0  0  0  0  0  0  0  0
  -28.1291   36.9325  -16.0119 H   0  0  0  0  0  0  0  0  0  0  0  0
  -26.6378   37.7515  -16.5597 H   0  0  0  0  0  0  0  0  0  0  0  0
  -27.1445   37.8571  -14.8707 H   0  0  0  0  0  0  0  0  0  0  0  0
  1  2  1  0  0  0  0
  2  3  2  0  0  0  0
  2  4  1  0  0  0  0
  3  5  1  0  0  0  0
  4  6  2  0  0  0  0
  4 12  1  0  0  0  0
  5  7  2  0  0  0  0
  5  8  1  0  0  0  0
  6  9  1  0  0  0  0
  6  7  1  0  0  0  0
  8 10  1  0  0  0  0
  8 13  1  0  0  0  0
  9 11  1  0  0  0  0
  9 14  1  0  0  0  0
 10 15  1  0  0  0  0
 10 16  1  0  0  0  0
 10 17  1  0  0  0  0
 11 18  1  0  0  0  0
 11 19  1  0  0  0  0
 11 20  1  0  0  0  0
M  END
>  <Column 1>
CNc1cc(F)nc(NC)n1 ZINC000000039518

>  <Total Molweight>
156.163

>  <cLogP>
0.5635

>  <cLogS>
-2.367

>  <H-Acceptors>
4

>  <H-Donors>
2

>  <Total Surface Area>
124.57

>  <MMFF94 Energy>
-147.23

> <Gold.Version>
5.8.1

> <Gold.Id.Protein>
ID|2FQT|mol2

> <Gold.PLP.Fitness>
34.4201

> <Gold.PLP.PLP>
-29.1784

> <Gold.PLP.part.hbond>
-2.0000

> <Gold.PLP.part.metal>
0.0000

> <Gold.PLP.part.buried>
-4.7378

> <Gold.PLP.part.nonpolar>
-23.2073

> <Gold.PLP.part.repulsive>
0.2029

> <Gold.PLP.ligand.clash>
0.0000

> <Gold.PLP.ligand.torsion>
0.3799

> <Gold.PLP.Chemscore.Hbond>
2.0000

> <Gold.PLP.Chemscore.CHOScore>
0.0000

> <Gold.PLP.Chemscore.Metal>
0.0000

> <Gold.Chemscore.Hbonds>
donor molecule, donor type, donor heavy atom, donor atom, acceptor molecule, acceptor atom, score
      L1  H     8    13       P1   954  1.00
      L1  H     9    14       P1   431  1.00

> <Gold.PLP.Chemscore.Internal.Correction>
0.0015

> <Gold.Protein.RotatedTorsions>
[ 1849  621  620  617 ] final  -36.57 input   60.00 | X-H torsion

> <Gold.Protein.ActiveResidues>
 HIS54   GLU57   HIS58   ALA61   PHE62   ILE76   ILE77   ASP78   ILE79   SER80  
 PRO81   GLN125  CYS126  GLY127  GLN128  HIS132  CO701  

> <Gold.Protein.RotatedAtoms>
  -19.7210   28.4378  -13.5052 H   0  0  0  0  0  0  0  0  0  0  0  0  # atno 1849 bound_to 621 
  -18.6619   27.2896  -13.9614 LP  0  0  0  0  0  0  0  0  0  0  0  0  # atno 2431 bound_to 621 
  -18.1929   28.4804  -12.9472 LP  0  0  0  0  0  0  0  0  0  0  0  0  # atno 2432 bound_to 621 

$$$$
Compound 197|DecoysActives|sdf|204|dock2
  -GOLD-   6112412173D 1   1.00000     0.00000

 20 20  0  0  0  0  0  0  0  0  3 V2000
  -26.8738   30.0478  -19.7497 O   0  0  0  0  0  0  0  0  0  0  0  0
  -26.1749   31.0375  -20.0042 N   0  3  0  0  0  0  0  0  0  0  0  0
  -25.6514   31.2868  -21.1015 O   0  5  0  0  0  0  0  0  0  0  0  0
  -25.9395   31.9926  -18.9444 C   0  0  0  0  0  0  0  0  0  0  0  0
  -25.4896   31.5976  -17.7020 N   0  0  0  0  0  0  0  0  0  0  0  0
  -26.1127   33.3589  -18.9911 C   0  0  0  0  0  0  0  0  0  0  0  0
  -25.3864   32.7057  -16.9925 C   0  0  0  0  0  0  0  0  0  0  0  0
  -25.7535   33.8005  -17.7450 N   0  0  0  0  0  0  0  0  0  0  0  0
  -24.9381   32.7816  -15.5781 C   0  0  0  0  0  0  0  0  0  0  0  0
  -25.7832   35.1865  -17.3163 C   0  0  0  0  0  0  0  0  0  0  0  0
  -26.7206   35.4061  -16.1421 C   0  0  0  0  0  0  0  0  0  0  0  0
  -26.4461   34.0197  -19.7796 H   0  0  0  0  0  0  0  0  0  0  0  0
  -24.0853   33.4586  -15.4735 H   0  0  0  0  0  0  0  0  0  0  0  0
  -24.6286   31.7937  -15.2225 H   0  0  0  0  0  0  0  0  0  0  0  0
  -25.7502   33.1323  -14.9342 H   0  0  0  0  0  0  0  0  0  0  0  0
  -26.0772   35.8045  -18.1705 H   0  0  0  0  0  0  0  0  0  0  0  0
  -24.7600   35.4698  -17.0449 H   0  0  0  0  0  0  0  0  0  0  0  0
  -26.4188   34.8041  -15.2785 H   0  0  0  0  0  0  0  0  0  0  0  0
  -27.7488   35.1297  -16.3973 H   0  0  0  0  0  0  0  0  0  0  0  0
  -26.7142   36.4586  -15.8432 H   0  0  0  0  0  0  0  0  0  0  0  0
  1  2  2  0  0  0  0
  2  3  1  0  0  0  0
  2  4  1  0  0  0  0
  4  5  1  0  0  0  0
  4  6  2  0  0  0  0
  5  7  2  0  0  0  0
  6  8  1  0  0  0  0
  6 12  1  0  0  0  0
  7  9  1  0  0  0  0
  7  8  1  0  0  0  0
  8 10  1  0  0  0  0
  9 13  1  0  0  0  0
  9 14  1  0  0  0  0
  9 15  1  0  0  0  0
 10 11  1  0  0  0  0
 10 16  1  0  0  0  0
 10 17  1  0  0  0  0
 11 18  1  0  0  0  0
 11 19  1  0  0  0  0
 11 20  1  0  0  0  0
M  CHG  1   2   1
M  CHG  1   3  -1
M  END
>  <Column 1>
CCn1cc([N+](=O)[O-])nc1C ZINC000000039522

>  <Total Molweight>
155.156

>  <cLogP>
-0.1282

>  <cLogS>
-0.712

>  <H-Acceptors>
4

>  <H-Donors>
0

>  <Total Surface Area>
123.17

>  <MMFF94 Energy>
74.706

> <Gold.Version>
5.8.1

> <Gold.Id.Protein>
ID|2FQT|mol2

> <Gold.PLP.Fitness>
39.7887

> <Gold.PLP.PLP>
-29.6146

> <Gold.PLP.part.hbond>
-1.0000

> <Gold.PLP.part.metal>
-1.0000

> <Gold.PLP.part.buried>
-3.5102

> <Gold.PLP.part.nonpolar>
-25.1627

> <Gold.PLP.part.repulsive>
0.1811

> <Gold.PLP.ligand.clash>
0.0000

> <Gold.PLP.ligand.torsion>
0.9012

> <Gold.PLP.Chemscore.Hbond>
1.0000

> <Gold.PLP.Chemscore.CHOScore>
0.9923

> <Gold.PLP.Chemscore.Metal>
0.9998

> <Gold.Chemscore.Hbonds>
donor molecule, donor type, donor heavy atom, donor atom, acceptor molecule, acceptor atom, score
      P1  H   966  2177       L1     1  1.00
      L1  C     6    12       P1   954  0.99
      P1  M  1222  1222       L1     1  1.00

> <Gold.PLP.Chemscore.Internal.Correction>
0.0010

> <Gold.Protein.RotatedTorsions>
[ 1849  621  620  617 ] final  -27.02 input   60.00 | X-H torsion

> <Gold.Protein.ActiveResidues>
 HIS54   GLU57   HIS58   ALA61   PHE62   ILE76   ILE77   ASP78   ILE79   SER80  
 PRO81   GLN125  CYS126  GLY127  GLN128  HIS132  CO701  

> <Gold.Protein.RotatedAtoms>
  -19.6645   28.5459  -13.4083 H   0  0  0  0  0  0  0  0  0  0  0  0  # atno 1849 bound_to 621 
  -18.8114   27.2967  -14.0082 LP  0  0  0  0  0  0  0  0  0  0  0  0  # atno 2431 bound_to 621 
  -18.1003   28.3645  -12.9980 LP  0  0  0  0  0  0  0  0  0  0  0  0  # atno 2432 bound_to 621 

$$$$
Compound 198|DecoysActives|sdf|205|dock3
  -GOLD-   6112412173D 1   1.00000     0.00000

 23 23  0  0  0  0  0  0  0  0  1 V2000
  -23.9228   32.1644  -15.5749 O   0  0  0  0  0  0  0  0  0  0  0  0
  -24.8137   32.9463  -16.2866 C   0  0  0  0  0  0  0  0  0  0  0  0
  -23.4414   31.0474  -16.3156 C   0  0  0  0  0  0  0  0  0  0  0  0
  -25.2209   32.5583  -17.5073 N   0  0  0  0  0  0  0  0  0  0  0  0
  -25.2278   34.0965  -15.6726 C   0  0  0  0  0  0  0  0  0  0  0  0
  -26.0824   33.3634  -18.1366 C   0  0  0  0  0  0  0  0  0  0  0  0
  -26.1083   34.8472  -16.4023 C   0  0  0  0  0  0  0  0  0  0  0  0
  -26.5486   34.5083  -17.6253 N   0  0  0  0  0  0  0  0  0  0  0  0
  -26.4852   32.9530  -19.3760 N   0  0  0  0  0  0  0  0  0  0  0  0
  -26.5472   36.0170  -15.8104 O   0  0  0  0  0  0  0  0  0  0  0  0
  -26.1301   31.6670  -19.8984 C   0  0  0  0  0  0  0  0  0  0  0  0
  -27.4136   36.7770  -16.6470 C   0  0  0  0  0  0  0  0  0  0  0  0
  -22.8863   31.3692  -17.2035 H   0  0  0  0  0  0  0  0  0  0  0  0
  -22.7490   30.4951  -15.6729 H   0  0  0  0  0  0  0  0  0  0  0  0
  -24.2580   30.3687  -16.5856 H   0  0  0  0  0  0  0  0  0  0  0  0
  -24.8873   34.3881  -14.6913 H   0  0  0  0  0  0  0  0  0  0  0  0
  -27.0448   33.6105  -19.8944 H   0  0  0  0  0  0  0  0  0  0  0  0
  -26.5234   30.8597  -19.2714 H   0  0  0  0  0  0  0  0  0  0  0  0
  -25.0438   31.5575  -19.9833 H   0  0  0  0  0  0  0  0  0  0  0  0
  -26.5549   31.5459  -20.8999 H   0  0  0  0  0  0  0  0  0  0  0  0
  -27.7049   37.6762  -16.0955 H   0  0  0  0  0  0  0  0  0  0  0  0
  -26.9017   37.0985  -17.5610 H   0  0  0  0  0  0  0  0  0  0  0  0
  -28.3273   36.2202  -16.8823 H   0  0  0  0  0  0  0  0  0  0  0  0
  1  2  1  0  0  0  0
  1  3  1  0  0  0  0
  2  4  2  0  0  0  0
  2  5  1  0  0  0  0
  3 13  1  0  0  0  0
  3 14  1  0  0  0  0
  3 15  1  0  0  0  0
  4  6  1  0  0  0  0
  5  7  2  0  0  0  0
  5 16  1  0  0  0  0
  6  8  2  0  0  0  0
  6  9  1  0  0  0  0
  7 10  1  0  0  0  0
  7  8  1  0  0  0  0
  9 11  1  0  0  0  0
  9 17  1  0  0  0  0
 10 12  1  0  0  0  0
 11 18  1  0  0  0  0
 11 19  1  0  0  0  0
 11 20  1  0  0  0  0
 12 21  1  0  0  0  0
 12 22  1  0  0  0  0
 12 23  1  0  0  0  0
M  END
>  <Column 1>
CNc1nc(OC)cc(OC)n1 ZINC000000039613

>  <Total Molweight>
169.183

>  <cLogP>
0.6757

>  <cLogS>
-2.029

>  <H-Acceptors>
5

>  <H-Donors>
1

>  <Total Surface Area>
139.02

>  <MMFF94 Energy>
-127.49

> <Gold.Version>
5.8.1

> <Gold.Id.Protein>
ID|2FQT|mol2

> <Gold.PLP.Fitness>
30.6127

> <Gold.PLP.PLP>
-28.6598

> <Gold.PLP.part.hbond>
-1.0000

> <Gold.PLP.part.metal>
0.0000

> <Gold.PLP.part.buried>
-5.0657

> <Gold.PLP.part.nonpolar>
-22.8610

> <Gold.PLP.part.repulsive>
0.4216

> <Gold.PLP.ligand.clash>
0.0000

> <Gold.PLP.ligand.torsion>
0.0468

> <Gold.PLP.Chemscore.Hbond>
0.6820

> <Gold.PLP.Chemscore.CHOScore>
0.0000

> <Gold.PLP.Chemscore.Metal>
0.0000

> <Gold.Chemscore.Hbonds>
donor molecule, donor type, donor heavy atom, donor atom, acceptor molecule, acceptor atom, score
      L1  H     9    17       P1   954  0.68

> <Gold.PLP.Chemscore.Internal.Correction>
0.0006

> <Gold.Protein.RotatedTorsions>
[ 1849  621  620  617 ] final -144.59 input   60.00 | X-H torsion

> <Gold.Protein.ActiveResidues>
 HIS54   GLU57   HIS58   ALA61   PHE62   ILE76   ILE77   ASP78   ILE79   SER80  
 PRO81   GLN125  CYS126  GLY127  GLN128  HIS132  CO701  

> <Gold.Protein.RotatedAtoms>
  -18.8507   27.3060  -14.0122 H   0  0  0  0  0  0  0  0  0  0  0  0  # atno 1849 bound_to 621 
  -18.0799   28.3335  -13.0131 LP  0  0  0  0  0  0  0  0  0  0  0  0  # atno 2431 bound_to 621 
  -19.6513   28.5763  -13.3850 LP  0  0  0  0  0  0  0  0  0  0  0  0  # atno 2432 bound_to 621 

$$$$
Compound 199|DecoysActives|sdf|206|dock1
  -GOLD-   6112412173D 1   1.00000     0.00000

 22 24  0  0  0  0  0  0  0  0  1 V2000
  -26.6229   29.2578  -18.9591 N   0  0  0  0  0  0  0  0  0  0  0  0
  -26.1874   29.9085  -17.8899 N   0  0  0  0  0  0  0  0  0  0  0  0
  -26.8229   30.1139  -20.0084 N   0  0  0  0  0  0  0  0  0  0  0  0
  -26.1033   31.2097  -18.2520 N   0  0  0  0  0  0  0  0  0  0  0  0
  -26.5007   31.3063  -19.5618 C   0  0  0  0  0  0  0  0  0  0  0  0
  -25.6684   32.2206  -17.3596 C   0  0  0  0  0  0  0  0  0  0  0  0
  -26.0637   33.5560  -17.5300 C   0  0  0  0  0  0  0  0  0  0  0  0
  -24.8292   31.8799  -16.2890 C   0  0  0  0  0  0  0  0  0  0  0  0
  -25.6193   34.5445  -16.6307 C   0  0  0  0  0  0  0  0  0  0  0  0
  -24.3904   32.8617  -15.3994 C   0  0  0  0  0  0  0  0  0  0  0  0
  -26.0282   35.8880  -16.8175 N   0  0  0  0  0  0  0  0  0  0  0  0
  -24.7813   34.1916  -15.5650 C   0  0  0  0  0  0  0  0  0  0  0  0
  -26.1429   36.4455  -18.0452 N   0  0  0  0  0  0  0  0  0  0  0  0
  -26.3683   36.8402  -15.8905 C   0  0  0  0  0  0  0  0  0  0  0  0
  -26.5406   37.6937  -17.8442 N   0  0  0  0  0  0  0  0  0  0  0  0
  -26.6855   37.9549  -16.5081 N   0  0  0  0  0  0  0  0  0  0  0  0
  -26.5388   32.2238  -20.1268 H   0  0  0  0  0  0  0  0  0  0  0  0
  -26.7142   33.8433  -18.3533 H   0  0  0  0  0  0  0  0  0  0  0  0
  -24.5042   30.8521  -16.1290 H   0  0  0  0  0  0  0  0  0  0  0  0
  -23.7392   32.5848  -14.5721 H   0  0  0  0  0  0  0  0  0  0  0  0
  -24.4127   34.9178  -14.8457 H   0  0  0  0  0  0  0  0  0  0  0  0
  -26.3712   36.6858  -14.8238 H   0  0  0  0  0  0  0  0  0  0  0  0
  1  2  2  0  0  0  0
  1  3  1  0  0  0  0
  2  4  1  0  0  0  0
  3  5  2  0  0  0  0
  4  6  1  0  0  0  0
  4  5  1  0  0  0  0
  5 17  1  0  0  0  0
  6  7  2  0  0  0  0
  6  8  1  0  0  0  0
  7  9  1  0  0  0  0
  7 18  1  0  0  0  0
  8 10  2  0  0  0  0
  8 19  1  0  0  0  0
  9 11  1  0  0  0  0
  9 12  2  0  0  0  0
 10 12  1  0  0  0  0
 10 20  1  0  0  0  0
 11 13  1  0  0  0  0
 11 14  1  0  0  0  0
 12 21  1  0  0  0  0
 13 15  2  0  0  0  0
 14 16  2  0  0  0  0
 14 22  1  0  0  0  0
 15 16  1  0  0  0  0
M  END
>  <Column 1>
c1cc(-n2cnnn2)cc(-n2cnnn2)c1 ZINC000000039654

>  <Total Molweight>
214.192

>  <cLogP>
-0.5432

>  <cLogS>
-2.214

>  <H-Acceptors>
8

>  <H-Donors>
0

>  <Total Surface Area>
163.74

>  <MMFF94 Energy>
53.15

> <Gold.Version>
5.8.1

> <Gold.Id.Protein>
ID|2FQT|mol2

> <Gold.PLP.Fitness>
58.2592

> <Gold.PLP.PLP>
-33.6080

> <Gold.PLP.part.hbond>
-1.0000

> <Gold.PLP.part.metal>
-2.8006

> <Gold.PLP.part.buried>
-1.6273

> <Gold.PLP.part.nonpolar>
-29.1169

> <Gold.PLP.part.repulsive>
0.2708

> <Gold.PLP.ligand.clash>
0.0000

> <Gold.PLP.ligand.torsion>
0.8496

> <Gold.PLP.Chemscore.Hbond>
1.0000

> <Gold.PLP.Chemscore.CHOScore>
2.0000

> <Gold.PLP.Chemscore.Metal>
2.8914

> <Gold.Chemscore.Hbonds>
donor molecule, donor type, donor heavy atom, donor atom, acceptor molecule, acceptor atom, score
      P1  H   966  2177       L1     3  1.00
      L1  C     5    17       P1   954  1.00
      L1  C    14    22       P1   431  1.00
      P1  M  1222  1222       L1     1  1.00
      P1  M  1222  1222       L1     2  1.00
      P1  M  1222  1222       L1     3  0.90

> <Gold.PLP.Chemscore.Internal.Correction>
0.0018

> <Gold.Protein.RotatedTorsions>
[ 1849  621  620  617 ] final -143.68 input   60.00 | X-H torsion

> <Gold.Protein.ActiveResidues>
 HIS54   GLU57   HIS58   ALA61   PHE62   ILE76   ILE77   ASP78   ILE79   SER80  
 PRO81   GLN125  CYS126  GLY127  GLN128  HIS132  CO701  

> <Gold.Protein.RotatedAtoms>
  -18.8650   27.3083  -14.0155 H   0  0  0  0  0  0  0  0  0  0  0  0  # atno 1849 bound_to 621 
  -18.0727   28.3218  -13.0189 LP  0  0  0  0  0  0  0  0  0  0  0  0  # atno 2431 bound_to 621 
  -19.6442   28.5857  -13.3758 LP  0  0  0  0  0  0  0  0  0  0  0  0  # atno 2432 bound_to 621 

$$$$
Compound 200|DecoysActives|sdf|207|dock2
  -GOLD-   6112412173D 1   1.00000     0.00000

 23 24  0  0  0  0  0  0  0  0  1 V2000
  -26.7084   33.8480  -18.9901 O   0  0  0  0  0  0  0  0  0  0  0  0
  -26.1476   33.8909  -17.7469 C   0  0  0  0  0  0  0  0  0  0  0  0
  -25.5680   32.7517  -17.1731 C   0  0  0  0  0  0  0  0  0  0  0  0
  -26.1603   35.1010  -17.0479 C   0  0  0  0  0  0  0  0  0  0  0  0
  -25.0023   32.8435  -15.8901 C   0  0  0  0  0  0  0  0  0  0  0  0
  -25.5002   31.4186  -17.8266 C   0  0  0  0  0  0  0  0  0  0  0  0
  -25.5952   35.1715  -15.7789 C   0  0  0  0  0  0  0  0  0  0  0  0
  -25.0152   34.0535  -15.1914 C   0  0  0  0  0  0  0  0  0  0  0  0
  -26.5006   30.8596  -18.4220 N   0  0  0  0  0  0  0  0  0  0  0  0
  -25.6314   36.3731  -15.1358 O   0  0  0  0  0  0  0  0  0  0  0  0
  -26.1973   29.6118  -18.9588 C   0  0  0  0  0  0  0  0  0  0  0  0
  -24.9406   29.1699  -18.8628 N   0  0  0  0  0  0  0  0  0  0  0  0
  -27.0562   28.7508  -19.5951 N   0  0  0  0  0  0  0  0  0  0  0  0
  -25.0232   27.9800  -19.4673 N   0  0  0  0  0  0  0  0  0  0  0  0
  -26.2852   27.7349  -19.9018 C   0  0  0  0  0  0  0  0  0  0  0  0
  -27.2619   33.0575  -19.0816 H   0  0  0  0  0  0  0  0  0  0  0  0
  -26.6047   35.9939  -17.4762 H   0  0  0  0  0  0  0  0  0  0  0  0
  -24.5463   31.9734  -15.4228 H   0  0  0  0  0  0  0  0  0  0  0  0
  -24.5081   30.9324  -17.7629 H   0  0  0  0  0  0  0  0  0  0  0  0
  -24.5724   34.1014  -14.2014 H   0  0  0  0  0  0  0  0  0  0  0  0
  -25.8748   36.2260  -14.2069 H   0  0  0  0  0  0  0  0  0  0  0  0
  -24.1926   27.4045  -19.5430 H   0  0  0  0  0  0  0  0  0  0  0  0
  -26.5742   26.8309  -20.4174 H   0  0  0  0  0  0  0  0  0  0  0  0
  1  2  1  0  0  0  0
  1 16  1  0  0  0  0
  2  3  2  0  0  0  0
  2  4  1  0  0  0  0
  3  5  1  0  0  0  0
  3  6  1  0  0  0  0
  4  7  2  0  0  0  0
  4 17  1  0  0  0  0
  5  8  2  0  0  0  0
  5 18  1  0  0  0  0
  6  9  2  0  0  0  0
  6 19  1  0  0  0  0
  7 10  1  0  0  0  0
  7  8  1  0  0  0  0
  8 20  1  0  0  0  0
  9 11  1  0  0  0  0
 10 21  1  0  0  0  0
 11 12  2  0  0  0  0
 11 13  1  0  0  0  0
 12 14  1  0  0  0  0
 13 15  2  0  0  0  0
 14 15  1  0  0  0  0
 14 22  1  0  0  0  0
 15 23  1  0  0  0  0
M  END
>  <Column 1>
Oc1ccc(C=Nc2nc[nH]n2)c(O)c1 ZINC000000039805

>  <Total Molweight>
204.189

>  <cLogP>
0.4814

>  <cLogS>
-1.787

>  <H-Acceptors>
6

>  <H-Donors>
3

>  <Total Surface Area>
157.57

>  <MMFF94 Energy>
-10.793

> <Gold.Version>
5.8.1

> <Gold.Id.Protein>
ID|2FQT|mol2

> <Gold.PLP.Fitness>
50.4565

> <Gold.PLP.PLP>
-33.2521

> <Gold.PLP.part.hbond>
-3.0000

> <Gold.PLP.part.metal>
-2.0000

> <Gold.PLP.part.buried>
-1.7644

> <Gold.PLP.part.nonpolar>
-27.0492

> <Gold.PLP.part.repulsive>
0.1725

> <Gold.PLP.ligand.clash>
0.0000

> <Gold.PLP.ligand.torsion>
0.3942

> <Gold.PLP.Chemscore.Hbond>
2.0000

> <Gold.PLP.Chemscore.CHOScore>
0.0000

> <Gold.PLP.Chemscore.Metal>
1.9986

> <Gold.Chemscore.Hbonds>
donor molecule, donor type, donor heavy atom, donor atom, acceptor molecule, acceptor atom, score
      L1  H    10    21       P1   431  1.00
      P1  H   966  2177       L1    13  1.00
      P1  M  1222  1222       L1     9  1.00
      P1  M  1222  1222       L1    13  1.00

> <Gold.PLP.Chemscore.Internal.Correction>
0.0009

> <Gold.Protein.RotatedTorsions>
[ 1849  621  620  617 ] final  -95.74 input   60.00 | X-H torsion

> <Gold.Protein.ActiveResidues>
 HIS54   GLU57   HIS58   ALA61   PHE62   ILE76   ILE77   ASP78   ILE79   SER80  
 PRO81   GLN125  CYS126  GLY127  GLN128  HIS132  CO701  

> <Gold.Protein.RotatedAtoms>
  -19.5326   27.6718  -13.9874 H   0  0  0  0  0  0  0  0  0  0  0  0  # atno 1849 bound_to 621 
  -17.9984   27.6896  -13.4451 LP  0  0  0  0  0  0  0  0  0  0  0  0  # atno 2431 bound_to 621 
  -19.0462   28.8518  -12.9779 LP  0  0  0  0  0  0  0  0  0  0  0  0  # atno 2432 bound_to 621 

$$$$
